
                              +++++++++++++++++++++++++++++++++++++++++++++++++++++++++++++++++++++++
                              +                                                                     +
                              +                               MT3DMS                                +
                              +             A Modular 3D Multi-Species Transport Model              +
                              +    For Simulation of Advection, Dispersion and Chemical Reactions   +
                              +                of Contaminants in Groundwater Systems               +
                              +                                                                     +
                              +++++++++++++++++++++++++++++++++++++++++++++++++++++++++++++++++++++++

  ----- 
 | M T | GMS MT3D Simulation                                                             
 | 3 D | 08 October 2017                                                                 
  ----- 
 THE TRANSPORT MODEL CONSISTS OF     4 LAYER(S)  231 ROW(S)  259 COLUMN(S)
 NUMBER OF STRESS PERIOD(S) FOR TRANSPORT SIMULATION =    3
 NUMBER OF ALL COMPONENTS INCLUDED IN SIMULATION =    4
 NUMBER OF MOBILE COMPONENTS INCLUDED IN SIMULATION =    4
 UNIT FOR TIME IS    d;  UNIT FOR LENGTH IS    m;  UNIT FOR MASS IS   mg
 OPTIONAL PACKAGES INCLUDED IN CURRENT SIMULATION:
  o ADV   ON UNIT  2
  o DSP   ON UNIT  3
  o SSM   ON UNIT  4
  o GCG   ON UNIT  9
  o TOB   ON UNIT 12

 BTN5 -- BASIC TRANSPORT PACKAGE, VERSION 5, FEBRUARY 2010, INPUT READ FROM UNIT  1
    7958237 ELEMENTS OF THE  X ARRAY USED BY THE BTN PACKAGE
     957268 ELEMENTS OF THE IX ARRAY USED BY THE BTN PACKAGE

 FMI5 -- FLOW MODEL INTERFACE PACKAGE, VERSION 5, FEBRUARY 2010, INPUT READ FROM UNIT 10
 FLOW MODEL IS STEADY-STATE
 FLOW MODEL CONTAINS CONSTANT-HEAD CELLS

 ADV5 -- ADVECTION PACKAGE, VERSION 5, FEBRUARY 2010, INPUT READ FROM UNIT  2
 ADVECTION IS SOLVED WITH THE ULTIMATE SCHEME
 COURANT NUMBER ALLOWED IN SOLVING THE ADVECTION TERM =  1.00    
          0 ELEMENTS OF THE  X ARRAY USED BY THE ADV PACKAGE
          0 ELEMENTS OF THE IX ARRAY USED BY THE ADV PACKAGE

 DSP5 -- DISPERSION PACKAGE, VERSION 5, FEBRUARY 2010, INPUT READ FROM UNIT  3
    5504276 ELEMENTS OF THE  X ARRAY USED BY THE DSP PACKAGE
          0 ELEMENTS OF THE IX ARRAY USED BY THE DSP PACKAGE

 SSM5 -- SINK & SOURCE MIXING PACKAGE, VERSION 5, FEBRUARY 2010, INPUT READ FROM UNIT  4
 HEADER LINE OF THE SSM PACKAGE INPUT FILE:
  F F T T F F                                                                                                                                                                                            
 MAJOR STRESS COMPONENTS PRESENT IN THE FLOW MODEL:
  o RECHARGE [RCH]
  o EVAPOTRANSPIRATION [EVT]
 MAXIMUM NUMBER OF POINT SINKS/SOURCES =   14928
     837138 ELEMENTS OF THE  X ARRAY USED BY THE SSM PACKAGE
     119658 ELEMENTS OF THE IX ARRAY BY THE SSM PACKAGE

 GCG5 -- GENERALIZED CONJUGATE GRADIENT SOLVER PACKAGE, VERSION 5, FEBRUARY 2010 INPUT READ FROM UNIT  9
 MAXIMUM OF    1 OUTER ITERATIONS
        AND   50 INNER ITERATIONS ALLOWED FOR CLOSURE
 THE PRECONDITIONING TYPE SELECTED IS JACOBI.
 DISPERSION CROSS TERMS LUMPED INTO RIGHT-HAND-SIDE
    3589790 ELEMENTS OF THE  X ARRAY USED BY THE GCG PACKAGE
        150 ELEMENTS OF THE IX ARRAY USED BY THE GCG PACKAGE

 TOB5 -- TRANSPORT OBSERVATION PACKAGE, VERSION 5, FEBRUARY 2010, INPUT READ FROM UNIT 12
# TOBS package input file (GMS - 6.0)                                                                                                                                                                   
 MAXIMUM NUMBER OF CONC OBSERVATION WELLS =      0
 MAXIMUM NUMBER OF MASS-FLUX OBSERVATIONS =      0
 MAXIMUM NUMBER OF CELLS IN A FLUX OBJECT =      0
         28 ELEMENTS OF THE  X ARRAY USED BY THE TOB PACKAGE
          4 ELEMENTS OF THE IX ARRAY USED BY THE TOB PACKAGE

 ..........................................
 ELEMENTS OF THE  X ARRAY USED =  17889470
 ELEMENTS OF THE IX ARRAY USED =   1077081
 ..........................................

 LAYER NUMBER  AQUIFER TYPE
 ------------  ------------
       1            1
       2            0
       3            0
       4            0

                           WIDTH ALONG ROWS (DELR)  READ ON UNIT  1 USING FORMAT: "           (10G15.6)"
                           -----------------------------------------------------------------------------

            1           2           3           4           5           6           7           8           9          10
           11          12          13          14          15          16          17          18          19          20
           21          22          23          24          25          26          27          28          29          30
           31          32          33          34          35          36          37          38          39          40
           41          42          43          44          45          46          47          48          49          50
           51          52          53          54          55          56          57          58          59          60
           61          62          63          64          65          66          67          68          69          70
           71          72          73          74          75          76          77          78          79          80
           81          82          83          84          85          86          87          88          89          90
           91          92          93          94          95          96          97          98          99         100
          101         102         103         104         105         106         107         108         109         110
          111         112         113         114         115         116         117         118         119         120
          121         122         123         124         125         126         127         128         129         130
          131         132         133         134         135         136         137         138         139         140
          141         142         143         144         145         146         147         148         149         150
          151         152         153         154         155         156         157         158         159         160
          161         162         163         164         165         166         167         168         169         170
          171         172         173         174         175         176         177         178         179         180
          181         182         183         184         185         186         187         188         189         190
          191         192         193         194         195         196         197         198         199         200
          201         202         203         204         205         206         207         208         209         210
          211         212         213         214         215         216         217         218         219         220
          221         222         223         224         225         226         227         228         229         230
          231         232         233         234         235         236         237         238         239         240
          241         242         243         244         245         246         247         248         249         250
          251         252         253         254         255         256         257         258         259
 .............................................................................................................................
   1    99.55       99.55       99.55       99.55       99.55       99.55       99.55       99.55       99.55       99.55    
        99.55       99.55       99.55       99.55       99.55       99.55       99.55       99.55       99.55       99.55    
        99.55       99.55       99.55       99.55       99.55       99.55       99.55       99.55       99.55       99.55    
        99.55       99.55       99.55       99.55       99.55       99.55       99.55       99.55       99.55       99.55    
        99.55       99.55       99.55       99.55       99.55       99.55       99.55       99.55       99.55       99.55    
        99.55       99.55       99.55       99.55       95.97       87.25       79.32       72.10       65.55       59.59    
        54.17       49.25       44.77       40.70       37.00       33.64       30.58       27.80       25.27       22.97    
        20.89       18.99       17.26       15.69       14.27       12.97       11.79       10.72       9.744       8.858    
        8.053       7.320       6.655       6.050       5.500       5.000       5.500       6.050       6.655       7.320    
        8.053       8.722       8.722       8.053       7.320       6.655       6.050       5.500       5.000       5.500    
        6.050       6.520       6.520       6.520       6.520       6.520       6.520       6.520       6.520       6.520    
        6.520       6.050       5.500       5.000       5.615       5.615       5.615       5.615       5.000       5.500    
        6.050       6.655       7.320       8.053       8.858       9.744       10.72       11.79       12.97       14.27    
        15.69       17.26       18.99       20.89       22.97       25.27       27.80       30.58       33.64       37.00    
        40.70       44.77       49.25       54.17       59.59       65.55       72.10       79.32       87.25       88.59    
        88.59       87.25       79.32       72.10       65.55       59.59       54.17       49.25       44.77       40.70    
        37.00       33.64       30.58       27.80       25.27       22.97       20.89       18.99       17.26       15.69    
        14.27       12.97       11.79       10.72       9.744       8.858       8.053       7.320       6.655       6.050    
        5.500       5.000       5.500       6.050       6.655       7.320       8.053       8.858       9.744       10.72    
        11.79       12.97       14.27       15.69       17.26       18.99       20.89       22.97       25.27       27.80    
        30.58       33.64       37.00       40.70       44.77       49.25       54.17       59.59       65.55       72.10    
        79.32       87.25       95.97       98.31       98.31       98.31       98.31       98.31       98.31       98.31    
        98.31       98.31       98.31       98.31       98.31       98.31       98.31       98.31       98.31       98.31    
        98.31       98.31       98.31       98.31       98.31       98.31       98.31       98.31       98.31       98.31    
        98.31       98.31       98.31       98.31       98.31       98.31       98.31       98.31       98.31       98.31    
        98.31       98.31       98.31       98.31       98.31       98.31       98.31       98.31       98.31    

                           WIDTH ALONG COLS (DELC)  READ ON UNIT  1 USING FORMAT: "           (10G15.6)"
                           -----------------------------------------------------------------------------

            1           2           3           4           5           6           7           8           9          10
           11          12          13          14          15          16          17          18          19          20
           21          22          23          24          25          26          27          28          29          30
           31          32          33          34          35          36          37          38          39          40
           41          42          43          44          45          46          47          48          49          50
           51          52          53          54          55          56          57          58          59          60
           61          62          63          64          65          66          67          68          69          70
           71          72          73          74          75          76          77          78          79          80
           81          82          83          84          85          86          87          88          89          90
           91          92          93          94          95          96          97          98          99         100
          101         102         103         104         105         106         107         108         109         110
          111         112         113         114         115         116         117         118         119         120
          121         122         123         124         125         126         127         128         129         130
          131         132         133         134         135         136         137         138         139         140
          141         142         143         144         145         146         147         148         149         150
          151         152         153         154         155         156         157         158         159         160
          161         162         163         164         165         166         167         168         169         170
          171         172         173         174         175         176         177         178         179         180
          181         182         183         184         185         186         187         188         189         190
          191         192         193         194         195         196         197         198         199         200
          201         202         203         204         205         206         207         208         209         210
          211         212         213         214         215         216         217         218         219         220
          221         222         223         224         225         226         227         228         229         230
          231
 .............................................................................................................................
   1    90.38       90.38       90.38       90.38       90.38       90.38       90.38       90.38       90.38       87.25    
        79.32       72.10       65.55       59.59       54.17       49.25       44.77       40.70       37.00       33.64    
        30.58       27.80       25.27       22.97       20.89       18.99       17.26       15.69       14.27       12.97    
        11.79       10.72       9.744       8.858       8.053       7.320       6.655       6.050       5.500       5.000    
        5.500       6.050       6.655       7.320       8.053       8.858       9.744       10.42       10.42       10.42    
        10.42       10.42       10.42       10.42       10.42       10.42       10.42       9.744       8.858       8.053    
        7.320       6.655       6.050       5.500       5.000       5.500       5.500       5.500       5.500       5.000    
        5.500       6.050       6.655       7.320       8.053       8.858       9.744       10.72       11.79       12.97    
        14.27       15.69       16.07       16.07       15.69       14.27       12.97       11.79       10.72       9.744    
        8.858       8.053       7.320       6.655       6.050       5.500       5.000       5.500       6.050       6.655    
        7.320       8.053       8.858       9.744       10.72       11.79       12.97       14.27       15.69       17.26    
        18.99       20.89       22.88       22.88       20.89       18.99       17.26       15.69       14.27       12.97    
        11.79       10.72       9.744       8.858       8.053       7.320       6.655       6.050       5.500       5.000    
        5.500       6.050       6.655       7.320       8.053       8.858       9.744       10.72       11.79       12.97    
        14.27       15.69       17.26       18.99       20.89       22.97       25.27       27.80       30.58       33.64    
        37.00       40.70       44.77       49.25       54.17       59.59       65.55       72.10       79.32       87.25    
        95.97       99.64       99.64       99.64       99.64       99.64       99.64       99.64       99.64       99.64    
        99.64       99.64       99.64       99.64       99.64       99.64       99.64       99.64       99.64       99.64    
        99.64       99.64       99.64       99.64       99.64       99.64       99.64       99.64       99.64       99.64    
        99.64       99.64       99.64       99.64       99.64       99.64       99.64       99.64       99.64       99.64    
        99.64       99.64       99.64       99.64       99.64       99.64       99.64       99.64       99.64       99.64    
        99.64       99.64       99.64       99.64       99.64       99.64       99.64       99.64       99.64       99.64    
        99.64       99.64       99.64       99.64       99.64       99.64       99.64       99.64       99.64       99.64    
        99.64    

                           TOP ELEV. OF 1ST LAYER   READ ON UNIT  1 USING FORMAT: "           (10G15.6)"
                           -----------------------------------------------------------------------------

                     CELL THICKNESS (DZ)      FOR LAYER  1 READ ON UNIT  1 USING FORMAT: "           (10G15.6)"
                     ------------------------------------------------------------------------------------------

                     CELL THICKNESS (DZ)      FOR LAYER  2 READ ON UNIT  1 USING FORMAT: "           (10G15.6)"
                     ------------------------------------------------------------------------------------------

                     CELL THICKNESS (DZ)      FOR LAYER  3 READ ON UNIT  1 USING FORMAT: "           (10G15.6)"
                     ------------------------------------------------------------------------------------------

                     CELL THICKNESS (DZ)      FOR LAYER  4 READ ON UNIT  1 USING FORMAT: "           (10G15.6)"
                     ------------------------------------------------------------------------------------------
                                       POROSITY                 =  0.3000000     FOR LAYER  1
                                       POROSITY                 =  0.3000000     FOR LAYER  2
                                       POROSITY                 =  0.3000000     FOR LAYER  3
                                       POROSITY                 =  0.3000000     FOR LAYER  4

                     CONCN. BOUNDARY ARRAY    FOR LAYER  1 READ ON UNIT  1 USING FORMAT: "              (30I3)"
                     ------------------------------------------------------------------------------------------

                     CONCN. BOUNDARY ARRAY    FOR LAYER  2 READ ON UNIT  1 USING FORMAT: "              (30I3)"
                     ------------------------------------------------------------------------------------------

                     CONCN. BOUNDARY ARRAY    FOR LAYER  3 READ ON UNIT  1 USING FORMAT: "              (30I3)"
                     ------------------------------------------------------------------------------------------

                     CONCN. BOUNDARY ARRAY    FOR LAYER  4 READ ON UNIT  1 USING FORMAT: "              (30I3)"
                     ------------------------------------------------------------------------------------------
                                       INITIAL CONC.: COMP.  01 =   0.000000     FOR LAYER  1
                                       INITIAL CONC.: COMP.  01 =   0.000000     FOR LAYER  2
                                       INITIAL CONC.: COMP.  01 =   0.000000     FOR LAYER  3
                                       INITIAL CONC.: COMP.  01 =   0.000000     FOR LAYER  4
                                       INITIAL CONC.: COMP.  02 =   0.000000     FOR LAYER  1
                                       INITIAL CONC.: COMP.  02 =   0.000000     FOR LAYER  2
                                       INITIAL CONC.: COMP.  02 =   0.000000     FOR LAYER  3
                                       INITIAL CONC.: COMP.  02 =   0.000000     FOR LAYER  4
                                       INITIAL CONC.: COMP.  03 =   0.000000     FOR LAYER  1
                                       INITIAL CONC.: COMP.  03 =   0.000000     FOR LAYER  2
                                       INITIAL CONC.: COMP.  03 =   0.000000     FOR LAYER  3
                                       INITIAL CONC.: COMP.  03 =   0.000000     FOR LAYER  4
                                       INITIAL CONC.: COMP.  04 =   0.000000     FOR LAYER  1
                                       INITIAL CONC.: COMP.  04 =   0.000000     FOR LAYER  2
                                       INITIAL CONC.: COMP.  04 =   0.000000     FOR LAYER  3
                                       INITIAL CONC.: COMP.  04 =   0.000000     FOR LAYER  4

 VALUE INDICATING INACTIVE CONCENTRATION CELLS =   -999.0000    
 MINIMUM SATURATED THICKNESS [THKMIN] ALLOWED =  0.0000 OF TOTAL CELL THICKNESS


 OUTPUT CONTROL OPTIONS
 ----------------------

 DO NOT PRINT CELL CONCENTRATION
 DO NOT PRINT PARTICLE NUMBER IN EACH CELL
 DO NOT PRINT RETARDATION FACTOR
 DO NOT PRINT DISPERSION COEFFICIENT
 SAVE DISSOLVED PHASE CONCENTRATIONS IN UNFORMATTED FILES [MT3Dnnn.UCN]
  FOR EACH SPECIES ON UNITS 201 AND ABOVE

 SIMULATION RESULTS ARE SAVED EVERY   1 TRANSPORT STEP(S)

 NUMBER OF OBSERVATION POINTS =    0

 SAVE ONE-LINE SUMMARY OF MASS BUDGETS IN FILES [MT3Dnnn.MAS]
  FOR EACH SPECIES ON UNITS 601 AND ABOVE, EVERY  1 TRANSPORT STEPS

 MAXIMUM LENGTH ALONG THE X (J) AXIS =   14106.38    
 MAXIMUM LENGTH ALONG THE Y (I) AXIS =   10611.69    
 MAXIMUM LENGTH ALONG THE Z (K) AXIS =   80.00001    


 ADVECTION SOLUTION OPTIONS
 --------------------------

 ADVECTION IS SOLVED WITH THE ULTIMATE SCHEME
 COURANT NUMBER ALLOWED IN SOLVING THE ADVECTION TERM =  1.00    


 DISPERSION INPUT PARAMETERS
 ---------------------------


                     LONG. DISPERSIVITY (AL)  FOR LAYER  1 READ ON UNIT  3 USING FORMAT: "           (10G15.6)"
                     ------------------------------------------------------------------------------------------

                     LONG. DISPERSIVITY (AL)  FOR LAYER  2 READ ON UNIT  3 USING FORMAT: "           (10G15.6)"
                     ------------------------------------------------------------------------------------------

                     LONG. DISPERSIVITY (AL)  FOR LAYER  3 READ ON UNIT  3 USING FORMAT: "           (10G15.6)"
                     ------------------------------------------------------------------------------------------

                     LONG. DISPERSIVITY (AL)  FOR LAYER  4 READ ON UNIT  3 USING FORMAT: "           (10G15.6)"
                     ------------------------------------------------------------------------------------------
                                       H. TRANS./LONG. DISP.    =  0.1000000    
                                       V. TRANS./LONG. DISP.    =  0.1000000E-01
                                       DIFFUSION COEFFICIENT    =   0.000000    



                                               SOLUTION BY THE GENERALIZED CONJUGATE GRADIENT METHOD
                                               -----------------------------------------------------
                                     MAXIMUM OUTER ITERATIONS ALLOWED FOR CLOSURE =        1
                                     MAXIMUM INNER ITERATIONS ALLOWED FOR CLOSURE =       50
                                                    PRECONDITIONING TYPE SELECTED =    1
                                                           ACCELERATION PARAMETER =     1.0000    
                                       CONCENTRATION CHANGE CRITERION FOR CLOSURE =    0.10000E-03
                                       GCG CONCENTRATION CHANGE PRINTOUT INTERVAL =      999


 TRANSPORT OBSERVATION INPUT DATA
 --------------------------------

 NUMBER OF CONCENTRATION OBSERVATION WELLS:     0
    MULTIPLIER FOR OBSERVED CONCENTRATIONS:    1.000    
    OPTION FOR CALCULATING RESIDUAL ERRORS:     1
         OPTION FOR LOGARITHMIC CONVERSION:     0
 OPTION FOR INTERPOLATING CALCULATED CONC.:     0

 OBS_NAME     LAYER  ROW  COL. SPECIES  OBS_TIME   ROW_OFFSET  COL_OFFSET    WEIGHT      OBS_CONC
 ...................................................................................................


                                   ++++++++++++++++++++++++++++++++++++++++++++++++++++++++++++++
                                                       STRESS PERIOD NO.  001
                                   ++++++++++++++++++++++++++++++++++++++++++++++++++++++++++++++


 LENGTH OF CURRENT STRESS PERIOD =   100.0000    
 NUMBER OF TIME STEPS FOR CURRENT STRESS PERIOD =   10
 TIME STEP MULTIPLIER USED IN FLOW SOLUTION =   1.000000    

 ***Type of Transport Simulation is TRANSIENT

 USER-SPECIFIED TRANSPORT STEPSIZE =   0.000000       d
 MAXIMUM NUMBER OF TRANSPORT STEPS ALLOWED  IN ONE FLOW TIME STEP =      1000
 MULTIPLIER FOR SUCCESSIVE TRANSPORT STEPS  [USED IN IMPLICIT SCHEMES] =     1.000
 MAXIMUM TRANSPORT STEP SIZE  [USED IN IMPLICIT SCHEMES] =   0.000000       d

 CONCENTRATION OF RECHARGE FLUXES WILL BE READ IN STRESS PERIOD  1

                           RECH. CONC. COMP.  01    READ ON UNIT  4 USING FORMAT: "           (10G15.6)"
                           -----------------------------------------------------------------------------

                           RECH. CONC. COMP.  02    READ ON UNIT  4 USING FORMAT: "           (10G15.6)"
                           -----------------------------------------------------------------------------

                           RECH. CONC. COMP.  03    READ ON UNIT  4 USING FORMAT: "           (10G15.6)"
                           -----------------------------------------------------------------------------

                           RECH. CONC. COMP.  04    READ ON UNIT  4 USING FORMAT: "           (10G15.6)"
                           -----------------------------------------------------------------------------

 CONCENTRATION OF E. T. FLUXES WILL BE READ IN STRESS PERIOD  1
                                       E. T. CONC. COMP.  01    =   0.000000    
                                       E. T. CONC. COMP.  02    =   0.000000    
                                       E. T. CONC. COMP.  03    =   0.000000    
                                       E. T. CONC. COMP.  04    =   0.000000    

 NO. OF POINT SINKS/SOURCES OF SPECIFIED CONCONCENTRATIONS =    0 IN STRESS PERIOD  1


                                          ================================================
                                                         TIME STEP NO.  001
                                          ================================================

 FROM TIME =   0.0000     TO    10.000    


                    "THKSAT          " FLOW TERMS FOR TIME STEP  1, STRESS PERIOD  1 READ UNFORMATTED ON UNIT 10
                    --------------------------------------------------------------------------------------------

                    "QXX             " FLOW TERMS FOR TIME STEP  1, STRESS PERIOD  1 READ UNFORMATTED ON UNIT 10
                    --------------------------------------------------------------------------------------------

                    "QYY             " FLOW TERMS FOR TIME STEP  1, STRESS PERIOD  1 READ UNFORMATTED ON UNIT 10
                    --------------------------------------------------------------------------------------------

                    "QZZ             " FLOW TERMS FOR TIME STEP  1, STRESS PERIOD  1 READ UNFORMATTED ON UNIT 10
                    --------------------------------------------------------------------------------------------

 MAXIMUM STEPSIZE DURING WHICH ANY PARTICLE CANNOT MOVE MORE THAN ONE CELL
 =  941.6    (WHEN MIN. R.F.=1)  AT K=   1, I= 129, J= 185

 MAXIMUM STEPSIZE WHICH MEETS STABILITY CRITERION OF THE ADVECTION TERM
 (FOR PURE FINITE-DIFFERENCE OPTION, MIXELM=0) 
 =  561.5    (WHEN MIN. R.F.=1)  AT K=   1, I= 130, J= 186

                    "CNH             " FLOW TERMS FOR TIME STEP  1, STRESS PERIOD  1 READ UNFORMATTED ON UNIT 10
                    --------------------------------------------------------------------------------------------

                    "RCH             " FLOW TERMS FOR TIME STEP  1, STRESS PERIOD  1 READ UNFORMATTED ON UNIT 10
                    --------------------------------------------------------------------------------------------

                    "EVT             " FLOW TERMS FOR TIME STEP  1, STRESS PERIOD  1 READ UNFORMATTED ON UNIT 10
                    --------------------------------------------------------------------------------------------


 TOTAL NUMBER OF POINT SOURCES/SINKS PRESENT IN THE FLOW MODEL =  3732

 MAXIMUM STEPSIZE WHICH MEETS STABILITY CRITERION OF THE SINK & SOURCE TERM
 =  1185.    (WHEN MIN. R.F.=1)  AT K=   1, I= 127, J= 180

 MAXIMUM STEPSIZE WHICH MEETS STABILITY CRITERION OF THE DISPERSION TERM
 =  41.41    (WHEN MIN. R.F.=1)  AT K=   1, I= 129, J= 185


     1 CALLS TO GCG PACKAGE FOR TRANSPORT TIME STEP   1 IN FLOW TIME STEP   1 STRESS PERIOD   1
     6 TOTAL ITERATIONS
  MAXIMUM CONCENTRATION CHANGES FOR EACH ITERATION:
  MAX. CHANGE LAYER,ROW,COL MAX. CHANGE LAYER,ROW,COL MAX. CHANGE LAYER,ROW,COL MAX. CHANGE LAYER,ROW,COL MAX. CHANGE LAYER,ROW,COL
 ------------------------------------------------------------------------------------------------------------------------------------
    18.83     (  1,133,185)   1.685     (  1,129,185)  0.1755     (  1,129,184)  0.1196E-01 (  1,129,185)  0.6714E-03 (  1,127,179)
   0.5269E-04 (  1,127,181)


     1 CALLS TO GCG PACKAGE FOR TRANSPORT TIME STEP   1 IN FLOW TIME STEP   1 STRESS PERIOD   1
     5 TOTAL ITERATIONS
  MAXIMUM CONCENTRATION CHANGES FOR EACH ITERATION:
  MAX. CHANGE LAYER,ROW,COL MAX. CHANGE LAYER,ROW,COL MAX. CHANGE LAYER,ROW,COL MAX. CHANGE LAYER,ROW,COL MAX. CHANGE LAYER,ROW,COL
 ------------------------------------------------------------------------------------------------------------------------------------
    1.800     (  1,133,185)  0.1611     (  1,129,185)  0.1679E-01 (  1,129,184)  0.1137E-02 (  1,129,185)  0.6449E-04 (  1,127,179)


     1 CALLS TO GCG PACKAGE FOR TRANSPORT TIME STEP   1 IN FLOW TIME STEP   1 STRESS PERIOD   1
     3 TOTAL ITERATIONS
  MAXIMUM CONCENTRATION CHANGES FOR EACH ITERATION:
  MAX. CHANGE LAYER,ROW,COL MAX. CHANGE LAYER,ROW,COL MAX. CHANGE LAYER,ROW,COL MAX. CHANGE LAYER,ROW,COL MAX. CHANGE LAYER,ROW,COL
 ------------------------------------------------------------------------------------------------------------------------------------
   0.4420E-02 (  1, 29, 95)  0.3450E-03 (  1, 40,113)  0.2992E-04 (  1, 41,114)


     1 CALLS TO GCG PACKAGE FOR TRANSPORT TIME STEP   1 IN FLOW TIME STEP   1 STRESS PERIOD   1
     4 TOTAL ITERATIONS
  MAXIMUM CONCENTRATION CHANGES FOR EACH ITERATION:
  MAX. CHANGE LAYER,ROW,COL MAX. CHANGE LAYER,ROW,COL MAX. CHANGE LAYER,ROW,COL MAX. CHANGE LAYER,ROW,COL MAX. CHANGE LAYER,ROW,COL
 ------------------------------------------------------------------------------------------------------------------------------------
   0.5188E-01 (  1,133,185)  0.4643E-02 (  1,129,185)  0.4766E-03 (  1,129,184)  0.3193E-04 (  1,129,185)



 >>>>>>>>>>>>>>>>>>>>>>>>>>>>>>>>>>>>>>>>>>>>>>>>>>>>>>>FOR COMPONENT NO. 01<<<<<<<<<<<<<<<<<<<<<<<<<<<<<<<<<<<<<<<<<<<<<<<<<<<<<<<


                                            -------------------------------------------
                                                      TRANSPORT STEP NO.    1
                                            -------------------------------------------

 TOTAL ELAPSED TIME SINCE BEGINNING OF SIMULATION =   10.00000       d
 .....................................................................

                     CUMMULATIVE MASS BUDGETS AT END OF TRANSPORT STEP    1, TIME STEP    1, STRESS PERIOD    1
                     ------------------------------------------------------------------------------------------

                                                             IN                           OUT
                                                      ----------------             ----------------
                               CONSTANT CONCENTRATION:    0.000000                    0.000000    
                                        CONSTANT HEAD:    0.000000                    0.000000    
                                             RECHARGE:    119435.7                    0.000000    
                                   EVAPOTRANSPIRATION:    0.000000                    0.000000    
                                MASS STORAGE (SOLUTE):    0.000000                   -119434.0    
                            ---------------------------------------------------------------------------
                                              [TOTAL]:    119435.7       mg          -119434.0       mg

                                                          NET (IN - OUT):    1.703125    
                                                   DISCREPANCY (PERCENT):   0.1425986E-02



 >>>>>>>>>>>>>>>>>>>>>>>>>>>>>>>>>>>>>>>>>>>>>>>>>>>>>>>FOR COMPONENT NO. 02<<<<<<<<<<<<<<<<<<<<<<<<<<<<<<<<<<<<<<<<<<<<<<<<<<<<<<<


                                            -------------------------------------------
                                                      TRANSPORT STEP NO.    1
                                            -------------------------------------------

 TOTAL ELAPSED TIME SINCE BEGINNING OF SIMULATION =   10.00000       d
 .....................................................................

                     CUMMULATIVE MASS BUDGETS AT END OF TRANSPORT STEP    1, TIME STEP    1, STRESS PERIOD    1
                     ------------------------------------------------------------------------------------------

                                                             IN                           OUT
                                                      ----------------             ----------------
                               CONSTANT CONCENTRATION:    0.000000                    0.000000    
                                        CONSTANT HEAD:    0.000000                    0.000000    
                                             RECHARGE:    11640.29                    0.000000    
                                   EVAPOTRANSPIRATION:    0.000000                    0.000000    
                                MASS STORAGE (SOLUTE):    0.000000                   -11640.18    
                            ---------------------------------------------------------------------------
                                              [TOTAL]:    11640.29       mg          -11640.18       mg

                                                          NET (IN - OUT):   0.1103516    
                                                   DISCREPANCY (PERCENT):   0.9480182E-03



 >>>>>>>>>>>>>>>>>>>>>>>>>>>>>>>>>>>>>>>>>>>>>>>>>>>>>>>FOR COMPONENT NO. 03<<<<<<<<<<<<<<<<<<<<<<<<<<<<<<<<<<<<<<<<<<<<<<<<<<<<<<<


                                            -------------------------------------------
                                                      TRANSPORT STEP NO.    1
                                            -------------------------------------------

 TOTAL ELAPSED TIME SINCE BEGINNING OF SIMULATION =   10.00000       d
 .....................................................................

                     CUMMULATIVE MASS BUDGETS AT END OF TRANSPORT STEP    1, TIME STEP    1, STRESS PERIOD    1
                     ------------------------------------------------------------------------------------------

                                                             IN                           OUT
                                                      ----------------             ----------------
                               CONSTANT CONCENTRATION:    0.000000                    0.000000    
                                        CONSTANT HEAD:    0.000000                    0.000000    
                                             RECHARGE:    426.2060                    0.000000    
                                   EVAPOTRANSPIRATION:    0.000000                    0.000000    
                                MASS STORAGE (SOLUTE):    0.000000                   -426.2017    
                            ---------------------------------------------------------------------------
                                              [TOTAL]:    426.2060       mg          -426.2017       mg

                                                          NET (IN - OUT):   0.4241943E-02
                                                   DISCREPANCY (PERCENT):   0.9952851E-03



 >>>>>>>>>>>>>>>>>>>>>>>>>>>>>>>>>>>>>>>>>>>>>>>>>>>>>>>FOR COMPONENT NO. 04<<<<<<<<<<<<<<<<<<<<<<<<<<<<<<<<<<<<<<<<<<<<<<<<<<<<<<<


                                            -------------------------------------------
                                                      TRANSPORT STEP NO.    1
                                            -------------------------------------------

 TOTAL ELAPSED TIME SINCE BEGINNING OF SIMULATION =   10.00000       d
 .....................................................................

                     CUMMULATIVE MASS BUDGETS AT END OF TRANSPORT STEP    1, TIME STEP    1, STRESS PERIOD    1
                     ------------------------------------------------------------------------------------------

                                                             IN                           OUT
                                                      ----------------             ----------------
                               CONSTANT CONCENTRATION:    0.000000                    0.000000    
                                        CONSTANT HEAD:    0.000000                    0.000000    
                                             RECHARGE:    77.86137                    0.000000    
                                   EVAPOTRANSPIRATION:    0.000000                    0.000000    
                                MASS STORAGE (SOLUTE):    0.000000                   -77.85861    
                            ---------------------------------------------------------------------------
                                              [TOTAL]:    77.86137       mg          -77.85861       mg

                                                          NET (IN - OUT):   0.2754211E-02
                                                   DISCREPANCY (PERCENT):   0.3537390E-02


                                          ================================================
                                                         TIME STEP NO.  002
                                          ================================================

 FROM TIME =   10.000     TO    20.000    



     1 CALLS TO GCG PACKAGE FOR TRANSPORT TIME STEP   1 IN FLOW TIME STEP   2 STRESS PERIOD   1
     5 TOTAL ITERATIONS
  MAXIMUM CONCENTRATION CHANGES FOR EACH ITERATION:
  MAX. CHANGE LAYER,ROW,COL MAX. CHANGE LAYER,ROW,COL MAX. CHANGE LAYER,ROW,COL MAX. CHANGE LAYER,ROW,COL MAX. CHANGE LAYER,ROW,COL
 ------------------------------------------------------------------------------------------------------------------------------------
    1.027     (  1,133,185)  0.8190E-01 (  1,129,185)  0.8223E-02 (  1,129,184)  0.6030E-03 (  1,129,185)  0.3183E-04 (  1,127,179)


     1 CALLS TO GCG PACKAGE FOR TRANSPORT TIME STEP   1 IN FLOW TIME STEP   2 STRESS PERIOD   1
     5 TOTAL ITERATIONS
  MAXIMUM CONCENTRATION CHANGES FOR EACH ITERATION:
  MAX. CHANGE LAYER,ROW,COL MAX. CHANGE LAYER,ROW,COL MAX. CHANGE LAYER,ROW,COL MAX. CHANGE LAYER,ROW,COL MAX. CHANGE LAYER,ROW,COL
 ------------------------------------------------------------------------------------------------------------------------------------
    1.027     (  1,133,185)  0.8194E-01 (  1,129,185)  0.8226E-02 (  1,129,184)  0.6002E-03 (  1,129,185)  0.3207E-04 (  1,127,179)


     1 CALLS TO GCG PACKAGE FOR TRANSPORT TIME STEP   1 IN FLOW TIME STEP   2 STRESS PERIOD   1
     5 TOTAL ITERATIONS
  MAXIMUM CONCENTRATION CHANGES FOR EACH ITERATION:
  MAX. CHANGE LAYER,ROW,COL MAX. CHANGE LAYER,ROW,COL MAX. CHANGE LAYER,ROW,COL MAX. CHANGE LAYER,ROW,COL MAX. CHANGE LAYER,ROW,COL
 ------------------------------------------------------------------------------------------------------------------------------------
    1.035     (  1, 30, 95)  0.8099E-01 (  1, 40,113)  0.6319E-02 (  1, 41,114)  0.4328E-03 (  1, 40,115)  0.3362E-04 (  1, 40, 89)


     1 CALLS TO GCG PACKAGE FOR TRANSPORT TIME STEP   1 IN FLOW TIME STEP   2 STRESS PERIOD   1
     5 TOTAL ITERATIONS
  MAXIMUM CONCENTRATION CHANGES FOR EACH ITERATION:
  MAX. CHANGE LAYER,ROW,COL MAX. CHANGE LAYER,ROW,COL MAX. CHANGE LAYER,ROW,COL MAX. CHANGE LAYER,ROW,COL MAX. CHANGE LAYER,ROW,COL
 ------------------------------------------------------------------------------------------------------------------------------------
    1.026     (  1,133,185)  0.8195E-01 (  1,129,185)  0.8086E-02 (  1,129,184)  0.5834E-03 (  1,129,185)  0.3302E-04 (  1,127,179)



 >>>>>>>>>>>>>>>>>>>>>>>>>>>>>>>>>>>>>>>>>>>>>>>>>>>>>>>FOR COMPONENT NO. 01<<<<<<<<<<<<<<<<<<<<<<<<<<<<<<<<<<<<<<<<<<<<<<<<<<<<<<<


                                            -------------------------------------------
                                                      TRANSPORT STEP NO.    1
                                            -------------------------------------------

 TOTAL ELAPSED TIME SINCE BEGINNING OF SIMULATION =   20.00000       d
 .....................................................................

                     CUMMULATIVE MASS BUDGETS AT END OF TRANSPORT STEP    1, TIME STEP    2, STRESS PERIOD    1
                     ------------------------------------------------------------------------------------------

                                                             IN                           OUT
                                                      ----------------             ----------------
                               CONSTANT CONCENTRATION:    0.000000                    0.000000    
                                        CONSTANT HEAD:    0.000000                    0.000000    
                                             RECHARGE:    238871.5                    0.000000    
                                   EVAPOTRANSPIRATION:    0.000000                   0.2122236E-01
                                MASS STORAGE (SOLUTE):    48.96127                   -238918.4    
                            ---------------------------------------------------------------------------
                                              [TOTAL]:    238920.5       mg          -238918.4       mg

                                                          NET (IN - OUT):    2.046875    
                                                   DISCREPANCY (PERCENT):   0.8567218E-03



 >>>>>>>>>>>>>>>>>>>>>>>>>>>>>>>>>>>>>>>>>>>>>>>>>>>>>>>FOR COMPONENT NO. 02<<<<<<<<<<<<<<<<<<<<<<<<<<<<<<<<<<<<<<<<<<<<<<<<<<<<<<<


                                            -------------------------------------------
                                                      TRANSPORT STEP NO.    1
                                            -------------------------------------------

 TOTAL ELAPSED TIME SINCE BEGINNING OF SIMULATION =   20.00000       d
 .....................................................................

                     CUMMULATIVE MASS BUDGETS AT END OF TRANSPORT STEP    1, TIME STEP    2, STRESS PERIOD    1
                     ------------------------------------------------------------------------------------------

                                                             IN                           OUT
                                                      ----------------             ----------------
                               CONSTANT CONCENTRATION:    0.000000                    0.000000    
                                        CONSTANT HEAD:    0.000000                    0.000000    
                                             RECHARGE:    23280.58                    0.000000    
                                   EVAPOTRANSPIRATION:    0.000000                   0.2068029E-02
                                MASS STORAGE (SOLUTE):    4.732192                   -23285.18    
                            ---------------------------------------------------------------------------
                                              [TOTAL]:    23285.32       mg          -23285.18       mg

                                                          NET (IN - OUT):   0.1347656    
                                                   DISCREPANCY (PERCENT):   0.5787596E-03



 >>>>>>>>>>>>>>>>>>>>>>>>>>>>>>>>>>>>>>>>>>>>>>>>>>>>>>>FOR COMPONENT NO. 03<<<<<<<<<<<<<<<<<<<<<<<<<<<<<<<<<<<<<<<<<<<<<<<<<<<<<<<


                                            -------------------------------------------
                                                      TRANSPORT STEP NO.    1
                                            -------------------------------------------

 TOTAL ELAPSED TIME SINCE BEGINNING OF SIMULATION =   20.00000       d
 .....................................................................

                     CUMMULATIVE MASS BUDGETS AT END OF TRANSPORT STEP    1, TIME STEP    2, STRESS PERIOD    1
                     ------------------------------------------------------------------------------------------

                                                             IN                           OUT
                                                      ----------------             ----------------
                               CONSTANT CONCENTRATION:    0.000000                    0.000000    
                                        CONSTANT HEAD:    0.000000                    0.000000    
                                             RECHARGE:    852.4119                    0.000000    
                                   EVAPOTRANSPIRATION:    0.000000                   0.4816358E-04
                                MASS STORAGE (SOLUTE):   0.7452385E-01               -852.4827    
                            ---------------------------------------------------------------------------
                                              [TOTAL]:    852.4865       mg          -852.4826       mg

                                                          NET (IN - OUT):   0.3845215E-02
                                                   DISCREPANCY (PERCENT):   0.4510598E-03



 >>>>>>>>>>>>>>>>>>>>>>>>>>>>>>>>>>>>>>>>>>>>>>>>>>>>>>>FOR COMPONENT NO. 04<<<<<<<<<<<<<<<<<<<<<<<<<<<<<<<<<<<<<<<<<<<<<<<<<<<<<<<


                                            -------------------------------------------
                                                      TRANSPORT STEP NO.    1
                                            -------------------------------------------

 TOTAL ELAPSED TIME SINCE BEGINNING OF SIMULATION =   20.00000       d
 .....................................................................

                     CUMMULATIVE MASS BUDGETS AT END OF TRANSPORT STEP    1, TIME STEP    2, STRESS PERIOD    1
                     ------------------------------------------------------------------------------------------

                                                             IN                           OUT
                                                      ----------------             ----------------
                               CONSTANT CONCENTRATION:    0.000000                    0.000000    
                                        CONSTANT HEAD:    0.000000                    0.000000    
                                             RECHARGE:    155.7227                    0.000000    
                                   EVAPOTRANSPIRATION:    0.000000                   0.3111907E-04
                                MASS STORAGE (SOLUTE):   0.9247346E-01               -155.8123    
                            ---------------------------------------------------------------------------
                                              [TOTAL]:    155.8152       mg          -155.8123       mg

                                                          NET (IN - OUT):   0.2883911E-02
                                                   DISCREPANCY (PERCENT):   0.1850871E-02


                                          ================================================
                                                         TIME STEP NO.  003
                                          ================================================

 FROM TIME =   20.000     TO    30.000    



     1 CALLS TO GCG PACKAGE FOR TRANSPORT TIME STEP   1 IN FLOW TIME STEP   3 STRESS PERIOD   1
     5 TOTAL ITERATIONS
  MAXIMUM CONCENTRATION CHANGES FOR EACH ITERATION:
  MAX. CHANGE LAYER,ROW,COL MAX. CHANGE LAYER,ROW,COL MAX. CHANGE LAYER,ROW,COL MAX. CHANGE LAYER,ROW,COL MAX. CHANGE LAYER,ROW,COL
 ------------------------------------------------------------------------------------------------------------------------------------
   0.5082     (  1,133,185)  0.3680E-01 (  1,129,185)  0.3446E-02 (  1,129,184)  0.2709E-03 (  1,129,185)  0.1347E-04 (  1,127,179)


     1 CALLS TO GCG PACKAGE FOR TRANSPORT TIME STEP   1 IN FLOW TIME STEP   3 STRESS PERIOD   1
     5 TOTAL ITERATIONS
  MAXIMUM CONCENTRATION CHANGES FOR EACH ITERATION:
  MAX. CHANGE LAYER,ROW,COL MAX. CHANGE LAYER,ROW,COL MAX. CHANGE LAYER,ROW,COL MAX. CHANGE LAYER,ROW,COL MAX. CHANGE LAYER,ROW,COL
 ------------------------------------------------------------------------------------------------------------------------------------
   0.5081     (  1,133,185)  0.3682E-01 (  1,129,185)  0.3446E-02 (  1,129,184)  0.2697E-03 (  1,129,185)  0.1359E-04 (  1,127,179)


     1 CALLS TO GCG PACKAGE FOR TRANSPORT TIME STEP   1 IN FLOW TIME STEP   3 STRESS PERIOD   1
     5 TOTAL ITERATIONS
  MAXIMUM CONCENTRATION CHANGES FOR EACH ITERATION:
  MAX. CHANGE LAYER,ROW,COL MAX. CHANGE LAYER,ROW,COL MAX. CHANGE LAYER,ROW,COL MAX. CHANGE LAYER,ROW,COL MAX. CHANGE LAYER,ROW,COL
 ------------------------------------------------------------------------------------------------------------------------------------
   0.5186     (  1, 30, 95)  0.4039E-01 (  1, 40,113)  0.2863E-02 (  1, 41,114)  0.1982E-03 (  1, 40,115)  0.1431E-04 (  1, 40, 89)


     1 CALLS TO GCG PACKAGE FOR TRANSPORT TIME STEP   1 IN FLOW TIME STEP   3 STRESS PERIOD   1
     5 TOTAL ITERATIONS
  MAXIMUM CONCENTRATION CHANGES FOR EACH ITERATION:
  MAX. CHANGE LAYER,ROW,COL MAX. CHANGE LAYER,ROW,COL MAX. CHANGE LAYER,ROW,COL MAX. CHANGE LAYER,ROW,COL MAX. CHANGE LAYER,ROW,COL
 ------------------------------------------------------------------------------------------------------------------------------------
   0.5080     (  1,133,185)  0.3684E-01 (  1,129,185)  0.3380E-02 (  1,129,184)  0.2620E-03 (  1,129,185)  0.1419E-04 (  1,127,179)



 >>>>>>>>>>>>>>>>>>>>>>>>>>>>>>>>>>>>>>>>>>>>>>>>>>>>>>>FOR COMPONENT NO. 01<<<<<<<<<<<<<<<<<<<<<<<<<<<<<<<<<<<<<<<<<<<<<<<<<<<<<<<


                                            -------------------------------------------
                                                      TRANSPORT STEP NO.    1
                                            -------------------------------------------

 TOTAL ELAPSED TIME SINCE BEGINNING OF SIMULATION =   30.00000       d
 .....................................................................

                     CUMMULATIVE MASS BUDGETS AT END OF TRANSPORT STEP    1, TIME STEP    3, STRESS PERIOD    1
                     ------------------------------------------------------------------------------------------

                                                             IN                           OUT
                                                      ----------------             ----------------
                               CONSTANT CONCENTRATION:    0.000000                    0.000000    
                                        CONSTANT HEAD:    0.000000                  -0.1561595E-32
                                             RECHARGE:    358307.2                    0.000000    
                                   EVAPOTRANSPIRATION:    0.000000                   0.9514636E-01
                                MASS STORAGE (SOLUTE):    144.4268                   -358449.5    
                            ---------------------------------------------------------------------------
                                              [TOTAL]:    358451.7       mg          -358449.4       mg

                                                          NET (IN - OUT):    2.250000    
                                                   DISCREPANCY (PERCENT):   0.6277017E-03



 >>>>>>>>>>>>>>>>>>>>>>>>>>>>>>>>>>>>>>>>>>>>>>>>>>>>>>>FOR COMPONENT NO. 02<<<<<<<<<<<<<<<<<<<<<<<<<<<<<<<<<<<<<<<<<<<<<<<<<<<<<<<


                                            -------------------------------------------
                                                      TRANSPORT STEP NO.    1
                                            -------------------------------------------

 TOTAL ELAPSED TIME SINCE BEGINNING OF SIMULATION =   30.00000       d
 .....................................................................

                     CUMMULATIVE MASS BUDGETS AT END OF TRANSPORT STEP    1, TIME STEP    3, STRESS PERIOD    1
                     ------------------------------------------------------------------------------------------

                                                             IN                           OUT
                                                      ----------------             ----------------
                               CONSTANT CONCENTRATION:    0.000000                    0.000000    
                                        CONSTANT HEAD:    0.000000                  -0.8752860E-34
                                             RECHARGE:    34920.88                    0.000000    
                                   EVAPOTRANSPIRATION:    0.000000                   0.9261568E-02
                                MASS STORAGE (SOLUTE):    13.96032                   -34934.66    
                            ---------------------------------------------------------------------------
                                              [TOTAL]:    34934.84       mg          -34934.65       mg

                                                          NET (IN - OUT):   0.1875000    
                                                   DISCREPANCY (PERCENT):   0.5367150E-03



 >>>>>>>>>>>>>>>>>>>>>>>>>>>>>>>>>>>>>>>>>>>>>>>>>>>>>>>FOR COMPONENT NO. 03<<<<<<<<<<<<<<<<<<<<<<<<<<<<<<<<<<<<<<<<<<<<<<<<<<<<<<<


                                            -------------------------------------------
                                                      TRANSPORT STEP NO.    1
                                            -------------------------------------------

 TOTAL ELAPSED TIME SINCE BEGINNING OF SIMULATION =   30.00000       d
 .....................................................................

                     CUMMULATIVE MASS BUDGETS AT END OF TRANSPORT STEP    1, TIME STEP    3, STRESS PERIOD    1
                     ------------------------------------------------------------------------------------------

                                                             IN                           OUT
                                                      ----------------             ----------------
                               CONSTANT CONCENTRATION:    0.000000                    0.000000    
                                        CONSTANT HEAD:    0.000000                    0.000000    
                                             RECHARGE:    1278.618                    0.000000    
                                   EVAPOTRANSPIRATION:    0.000000                   0.2186149E-03
                                MASS STORAGE (SOLUTE):   0.2241136                   -1278.837    
                            ---------------------------------------------------------------------------
                                              [TOTAL]:    1278.842       mg          -1278.837       mg

                                                          NET (IN - OUT):   0.5126953E-02
                                                   DISCREPANCY (PERCENT):   0.4009067E-03



 >>>>>>>>>>>>>>>>>>>>>>>>>>>>>>>>>>>>>>>>>>>>>>>>>>>>>>>FOR COMPONENT NO. 04<<<<<<<<<<<<<<<<<<<<<<<<<<<<<<<<<<<<<<<<<<<<<<<<<<<<<<<


                                            -------------------------------------------
                                                      TRANSPORT STEP NO.    1
                                            -------------------------------------------

 TOTAL ELAPSED TIME SINCE BEGINNING OF SIMULATION =   30.00000       d
 .....................................................................

                     CUMMULATIVE MASS BUDGETS AT END OF TRANSPORT STEP    1, TIME STEP    3, STRESS PERIOD    1
                     ------------------------------------------------------------------------------------------

                                                             IN                           OUT
                                                      ----------------             ----------------
                               CONSTANT CONCENTRATION:    0.000000                    0.000000    
                                        CONSTANT HEAD:    0.000000                    0.000000    
                                             RECHARGE:    233.5841                    0.000000    
                                   EVAPOTRANSPIRATION:    0.000000                   0.1379766E-03
                                MASS STORAGE (SOLUTE):   0.2700956                   -233.8514    
                            ---------------------------------------------------------------------------
                                              [TOTAL]:    233.8542       mg          -233.8512       mg

                                                          NET (IN - OUT):   0.2960205E-02
                                                   DISCREPANCY (PERCENT):   0.1265842E-02


                                          ================================================
                                                         TIME STEP NO.  004
                                          ================================================

 FROM TIME =   30.000     TO    40.000    



     1 CALLS TO GCG PACKAGE FOR TRANSPORT TIME STEP   1 IN FLOW TIME STEP   4 STRESS PERIOD   1
     5 TOTAL ITERATIONS
  MAXIMUM CONCENTRATION CHANGES FOR EACH ITERATION:
  MAX. CHANGE LAYER,ROW,COL MAX. CHANGE LAYER,ROW,COL MAX. CHANGE LAYER,ROW,COL MAX. CHANGE LAYER,ROW,COL MAX. CHANGE LAYER,ROW,COL
 ------------------------------------------------------------------------------------------------------------------------------------
   0.3352     (  1,133,185)  0.2246E-01 (  1,129,185)  0.1927E-02 (  1,129,184)  0.1584E-03 (  1,129,185)  0.7391E-05 (  1,127,179)


     1 CALLS TO GCG PACKAGE FOR TRANSPORT TIME STEP   1 IN FLOW TIME STEP   4 STRESS PERIOD   1
     5 TOTAL ITERATIONS
  MAXIMUM CONCENTRATION CHANGES FOR EACH ITERATION:
  MAX. CHANGE LAYER,ROW,COL MAX. CHANGE LAYER,ROW,COL MAX. CHANGE LAYER,ROW,COL MAX. CHANGE LAYER,ROW,COL MAX. CHANGE LAYER,ROW,COL
 ------------------------------------------------------------------------------------------------------------------------------------
   0.3352     (  1,133,185)  0.2248E-01 (  1,129,185)  0.1926E-02 (  1,129,184)  0.1577E-03 (  1,129,185)  0.7510E-05 (  1,127,179)


     1 CALLS TO GCG PACKAGE FOR TRANSPORT TIME STEP   1 IN FLOW TIME STEP   4 STRESS PERIOD   1
     5 TOTAL ITERATIONS
  MAXIMUM CONCENTRATION CHANGES FOR EACH ITERATION:
  MAX. CHANGE LAYER,ROW,COL MAX. CHANGE LAYER,ROW,COL MAX. CHANGE LAYER,ROW,COL MAX. CHANGE LAYER,ROW,COL MAX. CHANGE LAYER,ROW,COL
 ------------------------------------------------------------------------------------------------------------------------------------
   0.3458     (  1, 30, 95)  0.2676E-01 (  1, 40,113)  0.1742E-02 (  1, 41,114)  0.1205E-03 (  1, 40,115)  0.7987E-05 (  1, 40, 89)


     1 CALLS TO GCG PACKAGE FOR TRANSPORT TIME STEP   1 IN FLOW TIME STEP   4 STRESS PERIOD   1
     5 TOTAL ITERATIONS
  MAXIMUM CONCENTRATION CHANGES FOR EACH ITERATION:
  MAX. CHANGE LAYER,ROW,COL MAX. CHANGE LAYER,ROW,COL MAX. CHANGE LAYER,ROW,COL MAX. CHANGE LAYER,ROW,COL MAX. CHANGE LAYER,ROW,COL
 ------------------------------------------------------------------------------------------------------------------------------------
   0.3351     (  1,133,185)  0.2250E-01 (  1,129,185)  0.1883E-02 (  1,129,184)  0.1532E-03 (  1,129,185)  0.7868E-05 (  1,127,179)



 >>>>>>>>>>>>>>>>>>>>>>>>>>>>>>>>>>>>>>>>>>>>>>>>>>>>>>>FOR COMPONENT NO. 01<<<<<<<<<<<<<<<<<<<<<<<<<<<<<<<<<<<<<<<<<<<<<<<<<<<<<<<


                                            -------------------------------------------
                                                      TRANSPORT STEP NO.    1
                                            -------------------------------------------

 TOTAL ELAPSED TIME SINCE BEGINNING OF SIMULATION =   40.00000       d
 .....................................................................

                     CUMMULATIVE MASS BUDGETS AT END OF TRANSPORT STEP    1, TIME STEP    4, STRESS PERIOD    1
                     ------------------------------------------------------------------------------------------

                                                             IN                           OUT
                                                      ----------------             ----------------
                               CONSTANT CONCENTRATION:    0.000000                    0.000000    
                                        CONSTANT HEAD:    0.000000                   0.3369514E-31
                                             RECHARGE:    477743.0                    0.000000    
                                   EVAPOTRANSPIRATION:    0.000000                   0.2406614    
                                MASS STORAGE (SOLUTE):    277.3162                   -478018.2    
                            ---------------------------------------------------------------------------
                                              [TOTAL]:    478020.3       mg          -478018.0       mg

                                                          NET (IN - OUT):    2.281250    
                                                   DISCREPANCY (PERCENT):   0.4772299E-03



 >>>>>>>>>>>>>>>>>>>>>>>>>>>>>>>>>>>>>>>>>>>>>>>>>>>>>>>FOR COMPONENT NO. 02<<<<<<<<<<<<<<<<<<<<<<<<<<<<<<<<<<<<<<<<<<<<<<<<<<<<<<<


                                            -------------------------------------------
                                                      TRANSPORT STEP NO.    1
                                            -------------------------------------------

 TOTAL ELAPSED TIME SINCE BEGINNING OF SIMULATION =   40.00000       d
 .....................................................................

                     CUMMULATIVE MASS BUDGETS AT END OF TRANSPORT STEP    1, TIME STEP    4, STRESS PERIOD    1
                     ------------------------------------------------------------------------------------------

                                                             IN                           OUT
                                                      ----------------             ----------------
                               CONSTANT CONCENTRATION:    0.000000                    0.000000    
                                        CONSTANT HEAD:    0.000000                   0.2286961E-32
                                             RECHARGE:    46561.17                    0.000000    
                                   EVAPOTRANSPIRATION:    0.000000                   0.2342009E-01
                                MASS STORAGE (SOLUTE):    26.81206                   -46587.78    
                            ---------------------------------------------------------------------------
                                              [TOTAL]:    46587.98       mg          -46587.76       mg

                                                          NET (IN - OUT):   0.2226562    
                                                   DISCREPANCY (PERCENT):   0.4779275E-03



 >>>>>>>>>>>>>>>>>>>>>>>>>>>>>>>>>>>>>>>>>>>>>>>>>>>>>>>FOR COMPONENT NO. 03<<<<<<<<<<<<<<<<<<<<<<<<<<<<<<<<<<<<<<<<<<<<<<<<<<<<<<<


                                            -------------------------------------------
                                                      TRANSPORT STEP NO.    1
                                            -------------------------------------------

 TOTAL ELAPSED TIME SINCE BEGINNING OF SIMULATION =   40.00000       d
 .....................................................................

                     CUMMULATIVE MASS BUDGETS AT END OF TRANSPORT STEP    1, TIME STEP    4, STRESS PERIOD    1
                     ------------------------------------------------------------------------------------------

                                                             IN                           OUT
                                                      ----------------             ----------------
                               CONSTANT CONCENTRATION:    0.000000                    0.000000    
                                        CONSTANT HEAD:    0.000000                   0.3685460E-34
                                             RECHARGE:    1704.824                    0.000000    
                                   EVAPOTRANSPIRATION:    0.000000                   0.5601486E-03
                                MASS STORAGE (SOLUTE):   0.4375303                   -1705.256    
                            ---------------------------------------------------------------------------
                                              [TOTAL]:    1705.261       mg          -1705.255       mg

                                                          NET (IN - OUT):   0.6347656E-02
                                                   DISCREPANCY (PERCENT):   0.3722402E-03



 >>>>>>>>>>>>>>>>>>>>>>>>>>>>>>>>>>>>>>>>>>>>>>>>>>>>>>>FOR COMPONENT NO. 04<<<<<<<<<<<<<<<<<<<<<<<<<<<<<<<<<<<<<<<<<<<<<<<<<<<<<<<


                                            -------------------------------------------
                                                      TRANSPORT STEP NO.    1
                                            -------------------------------------------

 TOTAL ELAPSED TIME SINCE BEGINNING OF SIMULATION =   40.00000       d
 .....................................................................

                     CUMMULATIVE MASS BUDGETS AT END OF TRANSPORT STEP    1, TIME STEP    4, STRESS PERIOD    1
                     ------------------------------------------------------------------------------------------

                                                             IN                           OUT
                                                      ----------------             ----------------
                               CONSTANT CONCENTRATION:    0.000000                    0.000000    
                                        CONSTANT HEAD:    0.000000                    0.000000    
                                             RECHARGE:    311.4455                    0.000000    
                                   EVAPOTRANSPIRATION:    0.000000                   0.3447867E-03
                                MASS STORAGE (SOLUTE):   0.5146261                   -311.9575    
                            ---------------------------------------------------------------------------
                                              [TOTAL]:    311.9601       mg          -311.9571       mg

                                                          NET (IN - OUT):   0.2960205E-02
                                                   DISCREPANCY (PERCENT):   0.9489096E-03


                                          ================================================
                                                         TIME STEP NO.  005
                                          ================================================

 FROM TIME =   40.000     TO    50.000    



     1 CALLS TO GCG PACKAGE FOR TRANSPORT TIME STEP   1 IN FLOW TIME STEP   5 STRESS PERIOD   1
     5 TOTAL ITERATIONS
  MAXIMUM CONCENTRATION CHANGES FOR EACH ITERATION:
  MAX. CHANGE LAYER,ROW,COL MAX. CHANGE LAYER,ROW,COL MAX. CHANGE LAYER,ROW,COL MAX. CHANGE LAYER,ROW,COL MAX. CHANGE LAYER,ROW,COL
 ------------------------------------------------------------------------------------------------------------------------------------
   0.2487     (  1,133,185)  0.1571E-01 (  1,129,185)  0.1229E-02 (  1,129,184)  0.1019E-03 (  1,129,185)  0.4806E-05 (  1,128,185)


     1 CALLS TO GCG PACKAGE FOR TRANSPORT TIME STEP   1 IN FLOW TIME STEP   5 STRESS PERIOD   1
     5 TOTAL ITERATIONS
  MAXIMUM CONCENTRATION CHANGES FOR EACH ITERATION:
  MAX. CHANGE LAYER,ROW,COL MAX. CHANGE LAYER,ROW,COL MAX. CHANGE LAYER,ROW,COL MAX. CHANGE LAYER,ROW,COL MAX. CHANGE LAYER,ROW,COL
 ------------------------------------------------------------------------------------------------------------------------------------
   0.2486     (  1,133,185)  0.1572E-01 (  1,129,185)  0.1227E-02 (  1,129,184)  0.1014E-03 (  1,129,185)  0.4791E-05 (  1,128,185)


     1 CALLS TO GCG PACKAGE FOR TRANSPORT TIME STEP   1 IN FLOW TIME STEP   5 STRESS PERIOD   1
     4 TOTAL ITERATIONS
  MAXIMUM CONCENTRATION CHANGES FOR EACH ITERATION:
  MAX. CHANGE LAYER,ROW,COL MAX. CHANGE LAYER,ROW,COL MAX. CHANGE LAYER,ROW,COL MAX. CHANGE LAYER,ROW,COL MAX. CHANGE LAYER,ROW,COL
 ------------------------------------------------------------------------------------------------------------------------------------
   0.2593     (  1, 30, 95)  0.1993E-01 (  1, 40,113)  0.1204E-02 (  1, 41,114)  0.8242E-04 (  1, 40,115)


     1 CALLS TO GCG PACKAGE FOR TRANSPORT TIME STEP   1 IN FLOW TIME STEP   5 STRESS PERIOD   1
     4 TOTAL ITERATIONS
  MAXIMUM CONCENTRATION CHANGES FOR EACH ITERATION:
  MAX. CHANGE LAYER,ROW,COL MAX. CHANGE LAYER,ROW,COL MAX. CHANGE LAYER,ROW,COL MAX. CHANGE LAYER,ROW,COL MAX. CHANGE LAYER,ROW,COL
 ------------------------------------------------------------------------------------------------------------------------------------
   0.2486     (  1,133,185)  0.1573E-01 (  1,129,185)  0.1195E-02 (  1,129,184)  0.9841E-04 (  1,129,185)



 >>>>>>>>>>>>>>>>>>>>>>>>>>>>>>>>>>>>>>>>>>>>>>>>>>>>>>>FOR COMPONENT NO. 01<<<<<<<<<<<<<<<<<<<<<<<<<<<<<<<<<<<<<<<<<<<<<<<<<<<<<<<


                                            -------------------------------------------
                                                      TRANSPORT STEP NO.    1
                                            -------------------------------------------

 TOTAL ELAPSED TIME SINCE BEGINNING OF SIMULATION =   50.00000       d
 .....................................................................

                     CUMMULATIVE MASS BUDGETS AT END OF TRANSPORT STEP    1, TIME STEP    5, STRESS PERIOD    1
                     ------------------------------------------------------------------------------------------

                                                             IN                           OUT
                                                      ----------------             ----------------
                               CONSTANT CONCENTRATION:    0.000000                    0.000000    
                                        CONSTANT HEAD:    0.000000                   0.8378352E-30
                                             RECHARGE:    597178.7                    0.000000    
                                   EVAPOTRANSPIRATION:    0.000000                   0.4710390    
                                MASS STORAGE (SOLUTE):    439.3185                   -597615.9    
                            ---------------------------------------------------------------------------
                                              [TOTAL]:    597618.0       mg          -597615.4       mg

                                                          NET (IN - OUT):    2.625000    
                                                   DISCREPANCY (PERCENT):   0.4392448E-03



 >>>>>>>>>>>>>>>>>>>>>>>>>>>>>>>>>>>>>>>>>>>>>>>>>>>>>>>FOR COMPONENT NO. 02<<<<<<<<<<<<<<<<<<<<<<<<<<<<<<<<<<<<<<<<<<<<<<<<<<<<<<<


                                            -------------------------------------------
                                                      TRANSPORT STEP NO.    1
                                            -------------------------------------------

 TOTAL ELAPSED TIME SINCE BEGINNING OF SIMULATION =   50.00000       d
 .....................................................................

                     CUMMULATIVE MASS BUDGETS AT END OF TRANSPORT STEP    1, TIME STEP    5, STRESS PERIOD    1
                     ------------------------------------------------------------------------------------------

                                                             IN                           OUT
                                                      ----------------             ----------------
                               CONSTANT CONCENTRATION:    0.000000                    0.000000    
                                        CONSTANT HEAD:    0.000000                   0.7035384E-31
                                             RECHARGE:    58201.46                    0.000000    
                                   EVAPOTRANSPIRATION:    0.000000                   0.4584187E-01
                                MASS STORAGE (SOLUTE):    42.48912                   -58243.76    
                            ---------------------------------------------------------------------------
                                              [TOTAL]:    58243.95       mg          -58243.71       mg

                                                          NET (IN - OUT):   0.2382812    
                                                   DISCREPANCY (PERCENT):   0.4091099E-03



 >>>>>>>>>>>>>>>>>>>>>>>>>>>>>>>>>>>>>>>>>>>>>>>>>>>>>>>FOR COMPONENT NO. 03<<<<<<<<<<<<<<<<<<<<<<<<<<<<<<<<<<<<<<<<<<<<<<<<<<<<<<<


                                            -------------------------------------------
                                                      TRANSPORT STEP NO.    1
                                            -------------------------------------------

 TOTAL ELAPSED TIME SINCE BEGINNING OF SIMULATION =   50.00000       d
 .....................................................................

                     CUMMULATIVE MASS BUDGETS AT END OF TRANSPORT STEP    1, TIME STEP    5, STRESS PERIOD    1
                     ------------------------------------------------------------------------------------------

                                                             IN                           OUT
                                                      ----------------             ----------------
                               CONSTANT CONCENTRATION:    0.000000                    0.000000    
                                        CONSTANT HEAD:    0.000000                   0.1859206E-32
                                             RECHARGE:    2131.030                    0.000000    
                                   EVAPOTRANSPIRATION:    0.000000                   0.1111911E-02
                                MASS STORAGE (SOLUTE):   0.7042531                   -2131.728    
                            ---------------------------------------------------------------------------
                                              [TOTAL]:    2131.734       mg          -2131.726       mg

                                                          NET (IN - OUT):   0.7812500E-02
                                                   DISCREPANCY (PERCENT):   0.3664863E-03



 >>>>>>>>>>>>>>>>>>>>>>>>>>>>>>>>>>>>>>>>>>>>>>>>>>>>>>>FOR COMPONENT NO. 04<<<<<<<<<<<<<<<<<<<<<<<<<<<<<<<<<<<<<<<<<<<<<<<<<<<<<<<


                                            -------------------------------------------
                                                      TRANSPORT STEP NO.    1
                                            -------------------------------------------

 TOTAL ELAPSED TIME SINCE BEGINNING OF SIMULATION =   50.00000       d
 .....................................................................

                     CUMMULATIVE MASS BUDGETS AT END OF TRANSPORT STEP    1, TIME STEP    5, STRESS PERIOD    1
                     ------------------------------------------------------------------------------------------

                                                             IN                           OUT
                                                      ----------------             ----------------
                               CONSTANT CONCENTRATION:    0.000000                    0.000000    
                                        CONSTANT HEAD:    0.000000                    0.000000    
                                             RECHARGE:    389.3068                    0.000000    
                                   EVAPOTRANSPIRATION:    0.000000                   0.6659817E-03
                                MASS STORAGE (SOLUTE):   0.8094219                   -390.1139    
                            ---------------------------------------------------------------------------
                                              [TOTAL]:    390.1162       mg          -390.1132       mg

                                                          NET (IN - OUT):   0.3051758E-02
                                                   DISCREPANCY (PERCENT):   0.7822719E-03


                                          ================================================
                                                         TIME STEP NO.  006
                                          ================================================

 FROM TIME =   50.000     TO    60.000    



     1 CALLS TO GCG PACKAGE FOR TRANSPORT TIME STEP   1 IN FLOW TIME STEP   6 STRESS PERIOD   1
     4 TOTAL ITERATIONS
  MAXIMUM CONCENTRATION CHANGES FOR EACH ITERATION:
  MAX. CHANGE LAYER,ROW,COL MAX. CHANGE LAYER,ROW,COL MAX. CHANGE LAYER,ROW,COL MAX. CHANGE LAYER,ROW,COL MAX. CHANGE LAYER,ROW,COL
 ------------------------------------------------------------------------------------------------------------------------------------
   0.1980     (  1,129,179)  0.1191E-01 (  1,129,185)  0.8539E-03 (  1,129,184)  0.6902E-04 (  1,129,185)


     1 CALLS TO GCG PACKAGE FOR TRANSPORT TIME STEP   1 IN FLOW TIME STEP   6 STRESS PERIOD   1
     4 TOTAL ITERATIONS
  MAXIMUM CONCENTRATION CHANGES FOR EACH ITERATION:
  MAX. CHANGE LAYER,ROW,COL MAX. CHANGE LAYER,ROW,COL MAX. CHANGE LAYER,ROW,COL MAX. CHANGE LAYER,ROW,COL MAX. CHANGE LAYER,ROW,COL
 ------------------------------------------------------------------------------------------------------------------------------------
   0.1980     (  1,129,179)  0.1192E-01 (  1,129,185)  0.8523E-03 (  1,129,184)  0.6866E-04 (  1,129,185)


     1 CALLS TO GCG PACKAGE FOR TRANSPORT TIME STEP   1 IN FLOW TIME STEP   6 STRESS PERIOD   1
     4 TOTAL ITERATIONS
  MAXIMUM CONCENTRATION CHANGES FOR EACH ITERATION:
  MAX. CHANGE LAYER,ROW,COL MAX. CHANGE LAYER,ROW,COL MAX. CHANGE LAYER,ROW,COL MAX. CHANGE LAYER,ROW,COL MAX. CHANGE LAYER,ROW,COL
 ------------------------------------------------------------------------------------------------------------------------------------
   0.2075     (  1, 30, 95)  0.1583E-01 (  1, 40,113)  0.8965E-03 (  1, 41,114)  0.6025E-04 (  1, 40,115)


     1 CALLS TO GCG PACKAGE FOR TRANSPORT TIME STEP   1 IN FLOW TIME STEP   6 STRESS PERIOD   1
     4 TOTAL ITERATIONS
  MAXIMUM CONCENTRATION CHANGES FOR EACH ITERATION:
  MAX. CHANGE LAYER,ROW,COL MAX. CHANGE LAYER,ROW,COL MAX. CHANGE LAYER,ROW,COL MAX. CHANGE LAYER,ROW,COL MAX. CHANGE LAYER,ROW,COL
 ------------------------------------------------------------------------------------------------------------------------------------
   0.1980     (  1,129,179)  0.1193E-01 (  1,129,185)  0.8262E-03 (  1,129,184)  0.6658E-04 (  1,129,185)



 >>>>>>>>>>>>>>>>>>>>>>>>>>>>>>>>>>>>>>>>>>>>>>>>>>>>>>>FOR COMPONENT NO. 01<<<<<<<<<<<<<<<<<<<<<<<<<<<<<<<<<<<<<<<<<<<<<<<<<<<<<<<


                                            -------------------------------------------
                                                      TRANSPORT STEP NO.    1
                                            -------------------------------------------

 TOTAL ELAPSED TIME SINCE BEGINNING OF SIMULATION =   60.00000       d
 .....................................................................

                     CUMMULATIVE MASS BUDGETS AT END OF TRANSPORT STEP    1, TIME STEP    6, STRESS PERIOD    1
                     ------------------------------------------------------------------------------------------

                                                             IN                           OUT
                                                      ----------------             ----------------
                               CONSTANT CONCENTRATION:    0.000000                    0.000000    
                                        CONSTANT HEAD:    0.000000                   0.5747922E-29
                                             RECHARGE:    716614.4                    0.000000    
                                   EVAPOTRANSPIRATION:    0.000000                   0.7944147    
                                MASS STORAGE (SOLUTE):    623.2359                   -717235.8    
                            ---------------------------------------------------------------------------
                                              [TOTAL]:    717237.7       mg          -717235.0       mg

                                                          NET (IN - OUT):    2.687500    
                                                   DISCREPANCY (PERCENT):   0.3747021E-03



 >>>>>>>>>>>>>>>>>>>>>>>>>>>>>>>>>>>>>>>>>>>>>>>>>>>>>>>FOR COMPONENT NO. 02<<<<<<<<<<<<<<<<<<<<<<<<<<<<<<<<<<<<<<<<<<<<<<<<<<<<<<<


                                            -------------------------------------------
                                                      TRANSPORT STEP NO.    1
                                            -------------------------------------------

 TOTAL ELAPSED TIME SINCE BEGINNING OF SIMULATION =   60.00000       d
 .....................................................................

                     CUMMULATIVE MASS BUDGETS AT END OF TRANSPORT STEP    1, TIME STEP    6, STRESS PERIOD    1
                     ------------------------------------------------------------------------------------------

                                                             IN                           OUT
                                                      ----------------             ----------------
                               CONSTANT CONCENTRATION:    0.000000                    0.000000    
                                        CONSTANT HEAD:    0.000000                   0.5172769E-30
                                             RECHARGE:    69841.75                    0.000000    
                                   EVAPOTRANSPIRATION:    0.000000                   0.7732937E-01
                                MASS STORAGE (SOLUTE):    60.29750                   -69901.84    
                            ---------------------------------------------------------------------------
                                              [TOTAL]:    69902.05       mg          -69901.77       mg

                                                          NET (IN - OUT):   0.2812500    
                                                   DISCREPANCY (PERCENT):   0.4023495E-03



 >>>>>>>>>>>>>>>>>>>>>>>>>>>>>>>>>>>>>>>>>>>>>>>>>>>>>>>FOR COMPONENT NO. 03<<<<<<<<<<<<<<<<<<<<<<<<<<<<<<<<<<<<<<<<<<<<<<<<<<<<<<<


                                            -------------------------------------------
                                                      TRANSPORT STEP NO.    1
                                            -------------------------------------------

 TOTAL ELAPSED TIME SINCE BEGINNING OF SIMULATION =   60.00000       d
 .....................................................................

                     CUMMULATIVE MASS BUDGETS AT END OF TRANSPORT STEP    1, TIME STEP    6, STRESS PERIOD    1
                     ------------------------------------------------------------------------------------------

                                                             IN                           OUT
                                                      ----------------             ----------------
                               CONSTANT CONCENTRATION:    0.000000                    0.000000    
                                        CONSTANT HEAD:    0.000000                   0.1696114E-31
                                             RECHARGE:    2557.236                    0.000000    
                                   EVAPOTRANSPIRATION:    0.000000                   0.1903297E-02
                                MASS STORAGE (SOLUTE):    1.015275                   -2558.245    
                            ---------------------------------------------------------------------------
                                              [TOTAL]:    2558.251       mg          -2558.243       mg

                                                          NET (IN - OUT):   0.8544922E-02
                                                   DISCREPANCY (PERCENT):   0.3340147E-03



 >>>>>>>>>>>>>>>>>>>>>>>>>>>>>>>>>>>>>>>>>>>>>>>>>>>>>>>FOR COMPONENT NO. 04<<<<<<<<<<<<<<<<<<<<<<<<<<<<<<<<<<<<<<<<<<<<<<<<<<<<<<<


                                            -------------------------------------------
                                                      TRANSPORT STEP NO.    1
                                            -------------------------------------------

 TOTAL ELAPSED TIME SINCE BEGINNING OF SIMULATION =   60.00000       d
 .....................................................................

                     CUMMULATIVE MASS BUDGETS AT END OF TRANSPORT STEP    1, TIME STEP    6, STRESS PERIOD    1
                     ------------------------------------------------------------------------------------------

                                                             IN                           OUT
                                                      ----------------             ----------------
                               CONSTANT CONCENTRATION:    0.000000                    0.000000    
                                        CONSTANT HEAD:    0.000000                    0.000000    
                                             RECHARGE:    467.1682                    0.000000    
                                   EVAPOTRANSPIRATION:    0.000000                   0.1107762E-02
                                MASS STORAGE (SOLUTE):    1.140109                   -468.3063    
                            ---------------------------------------------------------------------------
                                              [TOTAL]:    468.3083       mg          -468.3052       mg

                                                          NET (IN - OUT):   0.3112793E-02
                                                   DISCREPANCY (PERCENT):   0.6646910E-03


                                          ================================================
                                                         TIME STEP NO.  007
                                          ================================================

 FROM TIME =   60.000     TO    70.000    



     1 CALLS TO GCG PACKAGE FOR TRANSPORT TIME STEP   1 IN FLOW TIME STEP   7 STRESS PERIOD   1
     4 TOTAL ITERATIONS
  MAXIMUM CONCENTRATION CHANGES FOR EACH ITERATION:
  MAX. CHANGE LAYER,ROW,COL MAX. CHANGE LAYER,ROW,COL MAX. CHANGE LAYER,ROW,COL MAX. CHANGE LAYER,ROW,COL MAX. CHANGE LAYER,ROW,COL
 ------------------------------------------------------------------------------------------------------------------------------------
   0.1645     (  1,129,179)  0.9540E-02 (  1,129,185)  0.6332E-03 (  1,129,184)  0.5001E-04 (  1,128,183)


     1 CALLS TO GCG PACKAGE FOR TRANSPORT TIME STEP   1 IN FLOW TIME STEP   7 STRESS PERIOD   1
     4 TOTAL ITERATIONS
  MAXIMUM CONCENTRATION CHANGES FOR EACH ITERATION:
  MAX. CHANGE LAYER,ROW,COL MAX. CHANGE LAYER,ROW,COL MAX. CHANGE LAYER,ROW,COL MAX. CHANGE LAYER,ROW,COL MAX. CHANGE LAYER,ROW,COL
 ------------------------------------------------------------------------------------------------------------------------------------
   0.1645     (  1,129,179)  0.9550E-02 (  1,129,185)  0.6320E-03 (  1,129,184)  0.4977E-04 (  1,128,183)


     1 CALLS TO GCG PACKAGE FOR TRANSPORT TIME STEP   1 IN FLOW TIME STEP   7 STRESS PERIOD   1
     4 TOTAL ITERATIONS
  MAXIMUM CONCENTRATION CHANGES FOR EACH ITERATION:
  MAX. CHANGE LAYER,ROW,COL MAX. CHANGE LAYER,ROW,COL MAX. CHANGE LAYER,ROW,COL MAX. CHANGE LAYER,ROW,COL MAX. CHANGE LAYER,ROW,COL
 ------------------------------------------------------------------------------------------------------------------------------------
   0.1730     (  1, 30, 95)  0.1310E-01 (  1, 40,113)  0.7016E-03 (  1, 41,114)  0.4610E-04 (  1, 40,115)


     1 CALLS TO GCG PACKAGE FOR TRANSPORT TIME STEP   1 IN FLOW TIME STEP   7 STRESS PERIOD   1
     4 TOTAL ITERATIONS
  MAXIMUM CONCENTRATION CHANGES FOR EACH ITERATION:
  MAX. CHANGE LAYER,ROW,COL MAX. CHANGE LAYER,ROW,COL MAX. CHANGE LAYER,ROW,COL MAX. CHANGE LAYER,ROW,COL MAX. CHANGE LAYER,ROW,COL
 ------------------------------------------------------------------------------------------------------------------------------------
   0.1645     (  1,129,179)  0.9553E-02 (  1,129,185)  0.6099E-03 (  1,129,184)  0.4804E-04 (  1,128,183)



 >>>>>>>>>>>>>>>>>>>>>>>>>>>>>>>>>>>>>>>>>>>>>>>>>>>>>>>FOR COMPONENT NO. 01<<<<<<<<<<<<<<<<<<<<<<<<<<<<<<<<<<<<<<<<<<<<<<<<<<<<<<<


                                            -------------------------------------------
                                                      TRANSPORT STEP NO.    1
                                            -------------------------------------------

 TOTAL ELAPSED TIME SINCE BEGINNING OF SIMULATION =   70.00000       d
 .....................................................................

                     CUMMULATIVE MASS BUDGETS AT END OF TRANSPORT STEP    1, TIME STEP    7, STRESS PERIOD    1
                     ------------------------------------------------------------------------------------------

                                                             IN                           OUT
                                                      ----------------             ----------------
                               CONSTANT CONCENTRATION:    0.000000                    0.000000    
                                        CONSTANT HEAD:    0.000000                   0.1728844E-28
                                             RECHARGE:    836050.2                    0.000000    
                                   EVAPOTRANSPIRATION:    0.000000                    1.214749    
                                MASS STORAGE (SOLUTE):    823.1531                   -836871.6    
                            ---------------------------------------------------------------------------
                                              [TOTAL]:    836873.3       mg          -836870.4       mg

                                                          NET (IN - OUT):    2.875000    
                                                   DISCREPANCY (PERCENT):   0.3435412E-03



 >>>>>>>>>>>>>>>>>>>>>>>>>>>>>>>>>>>>>>>>>>>>>>>>>>>>>>>FOR COMPONENT NO. 02<<<<<<<<<<<<<<<<<<<<<<<<<<<<<<<<<<<<<<<<<<<<<<<<<<<<<<<


                                            -------------------------------------------
                                                      TRANSPORT STEP NO.    1
                                            -------------------------------------------

 TOTAL ELAPSED TIME SINCE BEGINNING OF SIMULATION =   70.00000       d
 .....................................................................

                     CUMMULATIVE MASS BUDGETS AT END OF TRANSPORT STEP    1, TIME STEP    7, STRESS PERIOD    1
                     ------------------------------------------------------------------------------------------

                                                             IN                           OUT
                                                      ----------------             ----------------
                               CONSTANT CONCENTRATION:    0.000000                    0.000000    
                                        CONSTANT HEAD:    0.000000                   0.1597850E-29
                                             RECHARGE:    81482.04                    0.000000    
                                   EVAPOTRANSPIRATION:    0.000000                   0.1182811    
                                MASS STORAGE (SOLUTE):    79.65999                   -81561.54    
                            ---------------------------------------------------------------------------
                                              [TOTAL]:    81561.70       mg          -81561.42       mg

                                                          NET (IN - OUT):   0.2734375    
                                                   DISCREPANCY (PERCENT):   0.3352529E-03



 >>>>>>>>>>>>>>>>>>>>>>>>>>>>>>>>>>>>>>>>>>>>>>>>>>>>>>>FOR COMPONENT NO. 03<<<<<<<<<<<<<<<<<<<<<<<<<<<<<<<<<<<<<<<<<<<<<<<<<<<<<<<


                                            -------------------------------------------
                                                      TRANSPORT STEP NO.    1
                                            -------------------------------------------

 TOTAL ELAPSED TIME SINCE BEGINNING OF SIMULATION =   70.00000       d
 .....................................................................

                     CUMMULATIVE MASS BUDGETS AT END OF TRANSPORT STEP    1, TIME STEP    7, STRESS PERIOD    1
                     ------------------------------------------------------------------------------------------

                                                             IN                           OUT
                                                      ----------------             ----------------
                               CONSTANT CONCENTRATION:    0.000000                    0.000000    
                                        CONSTANT HEAD:    0.000000                   0.5775344E-31
                                             RECHARGE:    2983.442                    0.000000    
                                   EVAPOTRANSPIRATION:    0.000000                   0.2955722E-02
                                MASS STORAGE (SOLUTE):    1.362842                   -2984.798    
                            ---------------------------------------------------------------------------
                                              [TOTAL]:    2984.805       mg          -2984.795       mg

                                                          NET (IN - OUT):   0.1000977E-01
                                                   DISCREPANCY (PERCENT):   0.3353580E-03



 >>>>>>>>>>>>>>>>>>>>>>>>>>>>>>>>>>>>>>>>>>>>>>>>>>>>>>>FOR COMPONENT NO. 04<<<<<<<<<<<<<<<<<<<<<<<<<<<<<<<<<<<<<<<<<<<<<<<<<<<<<<<


                                            -------------------------------------------
                                                      TRANSPORT STEP NO.    1
                                            -------------------------------------------

 TOTAL ELAPSED TIME SINCE BEGINNING OF SIMULATION =   70.00000       d
 .....................................................................

                     CUMMULATIVE MASS BUDGETS AT END OF TRANSPORT STEP    1, TIME STEP    7, STRESS PERIOD    1
                     ------------------------------------------------------------------------------------------

                                                             IN                           OUT
                                                      ----------------             ----------------
                               CONSTANT CONCENTRATION:    0.000000                    0.000000    
                                        CONSTANT HEAD:    0.000000                    0.000000    
                                             RECHARGE:    545.0295                    0.000000    
                                   EVAPOTRANSPIRATION:    0.000000                   0.1669337E-02
                                MASS STORAGE (SOLUTE):    1.493934                   -546.5220    
                            ---------------------------------------------------------------------------
                                              [TOTAL]:    546.5235       mg          -546.5204       mg

                                                          NET (IN - OUT):   0.3112793E-02
                                                   DISCREPANCY (PERCENT):   0.5695641E-03


                                          ================================================
                                                         TIME STEP NO.  008
                                          ================================================

 FROM TIME =   70.000     TO    80.000    



     1 CALLS TO GCG PACKAGE FOR TRANSPORT TIME STEP   1 IN FLOW TIME STEP   8 STRESS PERIOD   1
     4 TOTAL ITERATIONS
  MAXIMUM CONCENTRATION CHANGES FOR EACH ITERATION:
  MAX. CHANGE LAYER,ROW,COL MAX. CHANGE LAYER,ROW,COL MAX. CHANGE LAYER,ROW,COL MAX. CHANGE LAYER,ROW,COL MAX. CHANGE LAYER,ROW,COL
 ------------------------------------------------------------------------------------------------------------------------------------
   0.1405     (  1,129,179)  0.8037E-02 (  1,133,185)  0.4950E-03 (  1,129,184)  0.3874E-04 (  1,130,187)


     1 CALLS TO GCG PACKAGE FOR TRANSPORT TIME STEP   1 IN FLOW TIME STEP   8 STRESS PERIOD   1
     4 TOTAL ITERATIONS
  MAXIMUM CONCENTRATION CHANGES FOR EACH ITERATION:
  MAX. CHANGE LAYER,ROW,COL MAX. CHANGE LAYER,ROW,COL MAX. CHANGE LAYER,ROW,COL MAX. CHANGE LAYER,ROW,COL MAX. CHANGE LAYER,ROW,COL
 ------------------------------------------------------------------------------------------------------------------------------------
   0.1405     (  1,129,179)  0.8015E-02 (  1,133,185)  0.4939E-03 (  1,129,184)  0.3865E-04 (  1,130,187)


     1 CALLS TO GCG PACKAGE FOR TRANSPORT TIME STEP   1 IN FLOW TIME STEP   8 STRESS PERIOD   1
     4 TOTAL ITERATIONS
  MAXIMUM CONCENTRATION CHANGES FOR EACH ITERATION:
  MAX. CHANGE LAYER,ROW,COL MAX. CHANGE LAYER,ROW,COL MAX. CHANGE LAYER,ROW,COL MAX. CHANGE LAYER,ROW,COL MAX. CHANGE LAYER,ROW,COL
 ------------------------------------------------------------------------------------------------------------------------------------
   0.1484     (  1, 30, 95)  0.1116E-01 (  1, 40,113)  0.5699E-03 (  1, 41,114)  0.3731E-04 (  1, 40,114)


     1 CALLS TO GCG PACKAGE FOR TRANSPORT TIME STEP   1 IN FLOW TIME STEP   8 STRESS PERIOD   1
     4 TOTAL ITERATIONS
  MAXIMUM CONCENTRATION CHANGES FOR EACH ITERATION:
  MAX. CHANGE LAYER,ROW,COL MAX. CHANGE LAYER,ROW,COL MAX. CHANGE LAYER,ROW,COL MAX. CHANGE LAYER,ROW,COL MAX. CHANGE LAYER,ROW,COL
 ------------------------------------------------------------------------------------------------------------------------------------
   0.1405     (  1,129,179)  0.8026E-02 (  1,133,185)  0.4748E-03 (  1,129,184)  0.3695E-04 (  1,127,179)



 >>>>>>>>>>>>>>>>>>>>>>>>>>>>>>>>>>>>>>>>>>>>>>>>>>>>>>>FOR COMPONENT NO. 01<<<<<<<<<<<<<<<<<<<<<<<<<<<<<<<<<<<<<<<<<<<<<<<<<<<<<<<


                                            -------------------------------------------
                                                      TRANSPORT STEP NO.    1
                                            -------------------------------------------

 TOTAL ELAPSED TIME SINCE BEGINNING OF SIMULATION =   80.00000       d
 .....................................................................

                     CUMMULATIVE MASS BUDGETS AT END OF TRANSPORT STEP    1, TIME STEP    8, STRESS PERIOD    1
                     ------------------------------------------------------------------------------------------

                                                             IN                           OUT
                                                      ----------------             ----------------
                               CONSTANT CONCENTRATION:    0.000000                    0.000000    
                                        CONSTANT HEAD:    0.000000                  -0.1448523E-28
                                             RECHARGE:    955485.9                    0.000000    
                                   EVAPOTRANSPIRATION:    0.000000                    1.732493    
                                MASS STORAGE (SOLUTE):    1037.758                   -956522.2    
                            ---------------------------------------------------------------------------
                                              [TOTAL]:    956523.7       mg          -956520.4       mg

                                                          NET (IN - OUT):    3.250000    
                                                   DISCREPANCY (PERCENT):   0.3397726E-03



 >>>>>>>>>>>>>>>>>>>>>>>>>>>>>>>>>>>>>>>>>>>>>>>>>>>>>>>FOR COMPONENT NO. 02<<<<<<<<<<<<<<<<<<<<<<<<<<<<<<<<<<<<<<<<<<<<<<<<<<<<<<<


                                            -------------------------------------------
                                                      TRANSPORT STEP NO.    1
                                            -------------------------------------------

 TOTAL ELAPSED TIME SINCE BEGINNING OF SIMULATION =   80.00000       d
 .....................................................................

                     CUMMULATIVE MASS BUDGETS AT END OF TRANSPORT STEP    1, TIME STEP    8, STRESS PERIOD    1
                     ------------------------------------------------------------------------------------------

                                                             IN                           OUT
                                                      ----------------             ----------------
                               CONSTANT CONCENTRATION:    0.000000                    0.000000    
                                        CONSTANT HEAD:    0.000000                  -0.1538690E-29
                                             RECHARGE:    93122.33                    0.000000    
                                   EVAPOTRANSPIRATION:    0.000000                   0.1687526    
                                MASS STORAGE (SOLUTE):    100.4412                   -93222.62    
                            ---------------------------------------------------------------------------
                                              [TOTAL]:    93222.77       mg          -93222.45       mg

                                                          NET (IN - OUT):   0.3203125    
                                                   DISCREPANCY (PERCENT):   0.3435996E-03



 >>>>>>>>>>>>>>>>>>>>>>>>>>>>>>>>>>>>>>>>>>>>>>>>>>>>>>>FOR COMPONENT NO. 03<<<<<<<<<<<<<<<<<<<<<<<<<<<<<<<<<<<<<<<<<<<<<<<<<<<<<<<


                                            -------------------------------------------
                                                      TRANSPORT STEP NO.    1
                                            -------------------------------------------

 TOTAL ELAPSED TIME SINCE BEGINNING OF SIMULATION =   80.00000       d
 .....................................................................

                     CUMMULATIVE MASS BUDGETS AT END OF TRANSPORT STEP    1, TIME STEP    8, STRESS PERIOD    1
                     ------------------------------------------------------------------------------------------

                                                             IN                           OUT
                                                      ----------------             ----------------
                               CONSTANT CONCENTRATION:    0.000000                    0.000000    
                                        CONSTANT HEAD:    0.000000                  -0.7307090E-31
                                             RECHARGE:    3409.648                    0.000000    
                                   EVAPOTRANSPIRATION:    0.000000                   0.4283517E-02
                                MASS STORAGE (SOLUTE):    1.741120                   -3411.381    
                            ---------------------------------------------------------------------------
                                              [TOTAL]:    3411.389       mg          -3411.377       mg

                                                          NET (IN - OUT):   0.1245117E-01
                                                   DISCREPANCY (PERCENT):   0.3649890E-03



 >>>>>>>>>>>>>>>>>>>>>>>>>>>>>>>>>>>>>>>>>>>>>>>>>>>>>>>FOR COMPONENT NO. 04<<<<<<<<<<<<<<<<<<<<<<<<<<<<<<<<<<<<<<<<<<<<<<<<<<<<<<<


                                            -------------------------------------------
                                                      TRANSPORT STEP NO.    1
                                            -------------------------------------------

 TOTAL ELAPSED TIME SINCE BEGINNING OF SIMULATION =   80.00000       d
 .....................................................................

                     CUMMULATIVE MASS BUDGETS AT END OF TRANSPORT STEP    1, TIME STEP    8, STRESS PERIOD    1
                     ------------------------------------------------------------------------------------------

                                                             IN                           OUT
                                                      ----------------             ----------------
                               CONSTANT CONCENTRATION:    0.000000                    0.000000    
                                        CONSTANT HEAD:    0.000000                    0.000000    
                                             RECHARGE:    622.8909                    0.000000    
                                   EVAPOTRANSPIRATION:    0.000000                   0.2344008E-02
                                MASS STORAGE (SOLUTE):    1.869983                   -624.7601    
                            ---------------------------------------------------------------------------
                                              [TOTAL]:    624.7609       mg          -624.7578       mg

                                                          NET (IN - OUT):   0.3112793E-02
                                                   DISCREPANCY (PERCENT):   0.4982387E-03


                                          ================================================
                                                         TIME STEP NO.  009
                                          ================================================

 FROM TIME =   80.000     TO    90.000    



     1 CALLS TO GCG PACKAGE FOR TRANSPORT TIME STEP   1 IN FLOW TIME STEP   9 STRESS PERIOD   1
     4 TOTAL ITERATIONS
  MAXIMUM CONCENTRATION CHANGES FOR EACH ITERATION:
  MAX. CHANGE LAYER,ROW,COL MAX. CHANGE LAYER,ROW,COL MAX. CHANGE LAYER,ROW,COL MAX. CHANGE LAYER,ROW,COL MAX. CHANGE LAYER,ROW,COL
 ------------------------------------------------------------------------------------------------------------------------------------
   0.1224     (  1,129,179)  0.7044E-02 (  1,133,185)  0.4042E-03 (  1,129,184)  0.3269E-04 (  1,130,187)


     1 CALLS TO GCG PACKAGE FOR TRANSPORT TIME STEP   1 IN FLOW TIME STEP   9 STRESS PERIOD   1
     4 TOTAL ITERATIONS
  MAXIMUM CONCENTRATION CHANGES FOR EACH ITERATION:
  MAX. CHANGE LAYER,ROW,COL MAX. CHANGE LAYER,ROW,COL MAX. CHANGE LAYER,ROW,COL MAX. CHANGE LAYER,ROW,COL MAX. CHANGE LAYER,ROW,COL
 ------------------------------------------------------------------------------------------------------------------------------------
   0.1224     (  1,129,179)  0.7024E-02 (  1,133,185)  0.4032E-03 (  1,129,184)  0.3263E-04 (  1,130,187)


     1 CALLS TO GCG PACKAGE FOR TRANSPORT TIME STEP   1 IN FLOW TIME STEP   9 STRESS PERIOD   1
     4 TOTAL ITERATIONS
  MAXIMUM CONCENTRATION CHANGES FOR EACH ITERATION:
  MAX. CHANGE LAYER,ROW,COL MAX. CHANGE LAYER,ROW,COL MAX. CHANGE LAYER,ROW,COL MAX. CHANGE LAYER,ROW,COL MAX. CHANGE LAYER,ROW,COL
 ------------------------------------------------------------------------------------------------------------------------------------
   0.1299     (  1, 30, 95)  0.9703E-02 (  1, 40,113)  0.4761E-03 (  1, 41,114)  0.3183E-04 (  1, 40,114)


     1 CALLS TO GCG PACKAGE FOR TRANSPORT TIME STEP   1 IN FLOW TIME STEP   9 STRESS PERIOD   1
     4 TOTAL ITERATIONS
  MAXIMUM CONCENTRATION CHANGES FOR EACH ITERATION:
  MAX. CHANGE LAYER,ROW,COL MAX. CHANGE LAYER,ROW,COL MAX. CHANGE LAYER,ROW,COL MAX. CHANGE LAYER,ROW,COL MAX. CHANGE LAYER,ROW,COL
 ------------------------------------------------------------------------------------------------------------------------------------
   0.1224     (  1,129,179)  0.7043E-02 (  1,133,185)  0.3862E-03 (  1,129,184)  0.3058E-04 (  1,130,187)



 >>>>>>>>>>>>>>>>>>>>>>>>>>>>>>>>>>>>>>>>>>>>>>>>>>>>>>>FOR COMPONENT NO. 01<<<<<<<<<<<<<<<<<<<<<<<<<<<<<<<<<<<<<<<<<<<<<<<<<<<<<<<


                                            -------------------------------------------
                                                      TRANSPORT STEP NO.    1
                                            -------------------------------------------

 TOTAL ELAPSED TIME SINCE BEGINNING OF SIMULATION =   90.00000       d
 .....................................................................

                     CUMMULATIVE MASS BUDGETS AT END OF TRANSPORT STEP    1, TIME STEP    9, STRESS PERIOD    1
                     ------------------------------------------------------------------------------------------

                                                             IN                           OUT
                                                      ----------------             ----------------
                               CONSTANT CONCENTRATION:    0.000000                    0.000000    
                                        CONSTANT HEAD:    0.000000                  -0.4178345E-27
                                             RECHARGE:    1074922.                    0.000000    
                                   EVAPOTRANSPIRATION:    0.000000                    2.345180    
                                MASS STORAGE (SOLUTE):    1263.681                   -1076184.    
                            ---------------------------------------------------------------------------
                                              [TOTAL]:    1076185.       mg          -1076181.       mg

                                                          NET (IN - OUT):    3.875000    
                                                   DISCREPANCY (PERCENT):   0.3600688E-03



 >>>>>>>>>>>>>>>>>>>>>>>>>>>>>>>>>>>>>>>>>>>>>>>>>>>>>>>FOR COMPONENT NO. 02<<<<<<<<<<<<<<<<<<<<<<<<<<<<<<<<<<<<<<<<<<<<<<<<<<<<<<<


                                            -------------------------------------------
                                                      TRANSPORT STEP NO.    1
                                            -------------------------------------------

 TOTAL ELAPSED TIME SINCE BEGINNING OF SIMULATION =   90.00000       d
 .....................................................................

                     CUMMULATIVE MASS BUDGETS AT END OF TRANSPORT STEP    1, TIME STEP    9, STRESS PERIOD    1
                     ------------------------------------------------------------------------------------------

                                                             IN                           OUT
                                                      ----------------             ----------------
                               CONSTANT CONCENTRATION:    0.000000                    0.000000    
                                        CONSTANT HEAD:    0.000000                  -0.4116913E-28
                                             RECHARGE:    104762.6                    0.000000    
                                   EVAPOTRANSPIRATION:    0.000000                   0.2285084    
                                MASS STORAGE (SOLUTE):    122.3145                   -104884.8    
                            ---------------------------------------------------------------------------
                                              [TOTAL]:    104884.9       mg          -104884.6       mg

                                                          NET (IN - OUT):   0.3515625    
                                                   DISCREPANCY (PERCENT):   0.3351893E-03



 >>>>>>>>>>>>>>>>>>>>>>>>>>>>>>>>>>>>>>>>>>>>>>>>>>>>>>>FOR COMPONENT NO. 03<<<<<<<<<<<<<<<<<<<<<<<<<<<<<<<<<<<<<<<<<<<<<<<<<<<<<<<


                                            -------------------------------------------
                                                      TRANSPORT STEP NO.    1
                                            -------------------------------------------

 TOTAL ELAPSED TIME SINCE BEGINNING OF SIMULATION =   90.00000       d
 .....................................................................

                     CUMMULATIVE MASS BUDGETS AT END OF TRANSPORT STEP    1, TIME STEP    9, STRESS PERIOD    1
                     ------------------------------------------------------------------------------------------

                                                             IN                           OUT
                                                      ----------------             ----------------
                               CONSTANT CONCENTRATION:    0.000000                    0.000000    
                                        CONSTANT HEAD:    0.000000                  -0.1781223E-29
                                             RECHARGE:    3835.854                    0.000000    
                                   EVAPOTRANSPIRATION:    0.000000                   0.5894239E-02
                                MASS STORAGE (SOLUTE):    2.145126                   -3837.991    
                            ---------------------------------------------------------------------------
                                              [TOTAL]:    3837.999       mg          -3837.986       mg

                                                          NET (IN - OUT):   0.1342773E-01
                                                   DISCREPANCY (PERCENT):   0.3498635E-03



 >>>>>>>>>>>>>>>>>>>>>>>>>>>>>>>>>>>>>>>>>>>>>>>>>>>>>>>FOR COMPONENT NO. 04<<<<<<<<<<<<<<<<<<<<<<<<<<<<<<<<<<<<<<<<<<<<<<<<<<<<<<<


                                            -------------------------------------------
                                                      TRANSPORT STEP NO.    1
                                            -------------------------------------------

 TOTAL ELAPSED TIME SINCE BEGINNING OF SIMULATION =   90.00000       d
 .....................................................................

                     CUMMULATIVE MASS BUDGETS AT END OF TRANSPORT STEP    1, TIME STEP    9, STRESS PERIOD    1
                     ------------------------------------------------------------------------------------------

                                                             IN                           OUT
                                                      ----------------             ----------------
                               CONSTANT CONCENTRATION:    0.000000                    0.000000    
                                        CONSTANT HEAD:    0.000000                    0.000000    
                                             RECHARGE:    700.7523                    0.000000    
                                   EVAPOTRANSPIRATION:    0.000000                   0.3120111E-02
                                MASS STORAGE (SOLUTE):    2.261692                   -703.0140    
                            ---------------------------------------------------------------------------
                                              [TOTAL]:    703.0140       mg          -703.0109       mg

                                                          NET (IN - OUT):   0.3173828E-02
                                                   DISCREPANCY (PERCENT):   0.4514612E-03


                                          ================================================
                                                         TIME STEP NO.  010
                                          ================================================

 FROM TIME =   90.000     TO    100.00    



     1 CALLS TO GCG PACKAGE FOR TRANSPORT TIME STEP   1 IN FLOW TIME STEP  10 STRESS PERIOD   1
     4 TOTAL ITERATIONS
  MAXIMUM CONCENTRATION CHANGES FOR EACH ITERATION:
  MAX. CHANGE LAYER,ROW,COL MAX. CHANGE LAYER,ROW,COL MAX. CHANGE LAYER,ROW,COL MAX. CHANGE LAYER,ROW,COL MAX. CHANGE LAYER,ROW,COL
 ------------------------------------------------------------------------------------------------------------------------------------
   0.1083     (  1,129,179)  0.6261E-02 (  1,133,185)  0.3420E-03 (  1,129,184)  0.2816E-04 (  1,130,187)


     1 CALLS TO GCG PACKAGE FOR TRANSPORT TIME STEP   1 IN FLOW TIME STEP  10 STRESS PERIOD   1
     4 TOTAL ITERATIONS
  MAXIMUM CONCENTRATION CHANGES FOR EACH ITERATION:
  MAX. CHANGE LAYER,ROW,COL MAX. CHANGE LAYER,ROW,COL MAX. CHANGE LAYER,ROW,COL MAX. CHANGE LAYER,ROW,COL MAX. CHANGE LAYER,ROW,COL
 ------------------------------------------------------------------------------------------------------------------------------------
   0.1083     (  1,129,179)  0.6243E-02 (  1,133,185)  0.3411E-03 (  1,129,184)  0.2810E-04 (  1,130,187)


     1 CALLS TO GCG PACKAGE FOR TRANSPORT TIME STEP   1 IN FLOW TIME STEP  10 STRESS PERIOD   1
     4 TOTAL ITERATIONS
  MAXIMUM CONCENTRATION CHANGES FOR EACH ITERATION:
  MAX. CHANGE LAYER,ROW,COL MAX. CHANGE LAYER,ROW,COL MAX. CHANGE LAYER,ROW,COL MAX. CHANGE LAYER,ROW,COL MAX. CHANGE LAYER,ROW,COL
 ------------------------------------------------------------------------------------------------------------------------------------
   0.1155     (  1, 30, 95)  0.8569E-02 (  1, 40,113)  0.4064E-03 (  1, 41,114)  0.2742E-04 (  1, 40,114)


     1 CALLS TO GCG PACKAGE FOR TRANSPORT TIME STEP   1 IN FLOW TIME STEP  10 STRESS PERIOD   1
     4 TOTAL ITERATIONS
  MAXIMUM CONCENTRATION CHANGES FOR EACH ITERATION:
  MAX. CHANGE LAYER,ROW,COL MAX. CHANGE LAYER,ROW,COL MAX. CHANGE LAYER,ROW,COL MAX. CHANGE LAYER,ROW,COL MAX. CHANGE LAYER,ROW,COL
 ------------------------------------------------------------------------------------------------------------------------------------
   0.1083     (  1,129,179)  0.6267E-02 (  1,133,185)  0.3257E-03 (  1,129,184)  0.2626E-04 (  1,130,187)



 >>>>>>>>>>>>>>>>>>>>>>>>>>>>>>>>>>>>>>>>>>>>>>>>>>>>>>>FOR COMPONENT NO. 01<<<<<<<<<<<<<<<<<<<<<<<<<<<<<<<<<<<<<<<<<<<<<<<<<<<<<<<


                                            -------------------------------------------
                                                      TRANSPORT STEP NO.    1
                                            -------------------------------------------

 TOTAL ELAPSED TIME SINCE BEGINNING OF SIMULATION =   100.0000       d
 .....................................................................

                     CUMMULATIVE MASS BUDGETS AT END OF TRANSPORT STEP    1, TIME STEP   10, STRESS PERIOD    1
                     ------------------------------------------------------------------------------------------

                                                             IN                           OUT
                                                      ----------------             ----------------
                               CONSTANT CONCENTRATION:    0.000000                    0.000000    
                                        CONSTANT HEAD:    0.000000                  -0.2670720E-26
                                             RECHARGE:    1194357.                    0.000000    
                                   EVAPOTRANSPIRATION:    0.000000                    3.051613    
                                MASS STORAGE (SOLUTE):    1497.707                   -1195854.    
                            ---------------------------------------------------------------------------
                                              [TOTAL]:    1195855.       mg          -1195851.       mg

                                                          NET (IN - OUT):    4.250000    
                                                   DISCREPANCY (PERCENT):   0.3553948E-03



 >>>>>>>>>>>>>>>>>>>>>>>>>>>>>>>>>>>>>>>>>>>>>>>>>>>>>>>FOR COMPONENT NO. 02<<<<<<<<<<<<<<<<<<<<<<<<<<<<<<<<<<<<<<<<<<<<<<<<<<<<<<<


                                            -------------------------------------------
                                                      TRANSPORT STEP NO.    1
                                            -------------------------------------------

 TOTAL ELAPSED TIME SINCE BEGINNING OF SIMULATION =   100.0000       d
 .....................................................................

                     CUMMULATIVE MASS BUDGETS AT END OF TRANSPORT STEP    1, TIME STEP   10, STRESS PERIOD    1
                     ------------------------------------------------------------------------------------------

                                                             IN                           OUT
                                                      ----------------             ----------------
                               CONSTANT CONCENTRATION:    0.000000                    0.000000    
                                        CONSTANT HEAD:    0.000000                  -0.2636281E-27
                                             RECHARGE:    116402.9                    0.000000    
                                   EVAPOTRANSPIRATION:    0.000000                   0.2974134    
                                MASS STORAGE (SOLUTE):    144.9704                   -116547.8    
                            ---------------------------------------------------------------------------
                                              [TOTAL]:    116547.9       mg          -116547.5       mg

                                                          NET (IN - OUT):   0.4062500    
                                                   DISCREPANCY (PERCENT):   0.3485698E-03



 >>>>>>>>>>>>>>>>>>>>>>>>>>>>>>>>>>>>>>>>>>>>>>>>>>>>>>>FOR COMPONENT NO. 03<<<<<<<<<<<<<<<<<<<<<<<<<<<<<<<<<<<<<<<<<<<<<<<<<<<<<<<


                                            -------------------------------------------
                                                      TRANSPORT STEP NO.    1
                                            -------------------------------------------

 TOTAL ELAPSED TIME SINCE BEGINNING OF SIMULATION =   100.0000       d
 .....................................................................

                     CUMMULATIVE MASS BUDGETS AT END OF TRANSPORT STEP    1, TIME STEP   10, STRESS PERIOD    1
                     ------------------------------------------------------------------------------------------

                                                             IN                           OUT
                                                      ----------------             ----------------
                               CONSTANT CONCENTRATION:    0.000000                    0.000000    
                                        CONSTANT HEAD:    0.000000                  -0.1169399E-28
                                             RECHARGE:    4262.060                    0.000000    
                                   EVAPOTRANSPIRATION:    0.000000                   0.7795371E-02
                                MASS STORAGE (SOLUTE):    2.571907                   -4264.624    
                            ---------------------------------------------------------------------------
                                              [TOTAL]:    4264.632       mg          -4264.616       mg

                                                          NET (IN - OUT):   0.1562500E-01
                                                   DISCREPANCY (PERCENT):   0.3663863E-03



 >>>>>>>>>>>>>>>>>>>>>>>>>>>>>>>>>>>>>>>>>>>>>>>>>>>>>>>FOR COMPONENT NO. 04<<<<<<<<<<<<<<<<<<<<<<<<<<<<<<<<<<<<<<<<<<<<<<<<<<<<<<<


                                            -------------------------------------------
                                                      TRANSPORT STEP NO.    1
                                            -------------------------------------------

 TOTAL ELAPSED TIME SINCE BEGINNING OF SIMULATION =   100.0000       d
 .....................................................................

                     CUMMULATIVE MASS BUDGETS AT END OF TRANSPORT STEP    1, TIME STEP   10, STRESS PERIOD    1
                     ------------------------------------------------------------------------------------------

                                                             IN                           OUT
                                                      ----------------             ----------------
                               CONSTANT CONCENTRATION:    0.000000                    0.000000    
                                        CONSTANT HEAD:    0.000000                    0.000000    
                                             RECHARGE:    778.6137                    0.000000    
                                   EVAPOTRANSPIRATION:    0.000000                   0.3987277E-02
                                MASS STORAGE (SOLUTE):    2.661872                   -781.2763    
                            ---------------------------------------------------------------------------
                                              [TOTAL]:    781.2756       mg          -781.2723       mg

                                                          NET (IN - OUT):   0.3234863E-02
                                                   DISCREPANCY (PERCENT):   0.4140498E-03


                                   ++++++++++++++++++++++++++++++++++++++++++++++++++++++++++++++
                                                       STRESS PERIOD NO.  002
                                   ++++++++++++++++++++++++++++++++++++++++++++++++++++++++++++++


 LENGTH OF CURRENT STRESS PERIOD =   900.0000    
 NUMBER OF TIME STEPS FOR CURRENT STRESS PERIOD =   10
 TIME STEP MULTIPLIER USED IN FLOW SOLUTION =   1.000000    

 ***Type of Transport Simulation is TRANSIENT

 USER-SPECIFIED TRANSPORT STEPSIZE =   0.000000       d
 MAXIMUM NUMBER OF TRANSPORT STEPS ALLOWED  IN ONE FLOW TIME STEP =      1000
 MULTIPLIER FOR SUCCESSIVE TRANSPORT STEPS  [USED IN IMPLICIT SCHEMES] =     1.000
 MAXIMUM TRANSPORT STEP SIZE  [USED IN IMPLICIT SCHEMES] =   0.000000       d

 CONCENTRATION OF RECHARGE FLUXES REUSED FROM LAST STRESS PERIOD

 CONCENTRATION OF E. T. FLUXES REUSED FROM LAST STRESS PERIOD

 NO. OF POINT SINKS/SOURCES OF SPECIFIED CONCONCENTRATIONS =    0 IN STRESS PERIOD  2


                                          ================================================
                                                         TIME STEP NO.  001
                                          ================================================

 FROM TIME =   100.00     TO    190.00    



     1 CALLS TO GCG PACKAGE FOR TRANSPORT TIME STEP   1 IN FLOW TIME STEP   1 STRESS PERIOD   2
     9 TOTAL ITERATIONS
  MAXIMUM CONCENTRATION CHANGES FOR EACH ITERATION:
  MAX. CHANGE LAYER,ROW,COL MAX. CHANGE LAYER,ROW,COL MAX. CHANGE LAYER,ROW,COL MAX. CHANGE LAYER,ROW,COL MAX. CHANGE LAYER,ROW,COL
 ------------------------------------------------------------------------------------------------------------------------------------
   0.9392     (  1,133,185)  0.2039     (  1,133,185)  0.8316E-01 (  1,129,183)  0.2918E-01 (  1,129,185)  0.8420E-02 (  1,132,181)
   0.2199E-02 (  1,126,179)  0.5928E-03 (  1,126,181)  0.1776E-03 (  1,130,185)  0.5615E-04 (  1,129,185)


     1 CALLS TO GCG PACKAGE FOR TRANSPORT TIME STEP   1 IN FLOW TIME STEP   1 STRESS PERIOD   2
     9 TOTAL ITERATIONS
  MAXIMUM CONCENTRATION CHANGES FOR EACH ITERATION:
  MAX. CHANGE LAYER,ROW,COL MAX. CHANGE LAYER,ROW,COL MAX. CHANGE LAYER,ROW,COL MAX. CHANGE LAYER,ROW,COL MAX. CHANGE LAYER,ROW,COL
 ------------------------------------------------------------------------------------------------------------------------------------
   0.9393     (  1,133,185)  0.2044     (  1,133,185)  0.8339E-01 (  1,129,183)  0.2921E-01 (  1,129,185)  0.8450E-02 (  1,132,181)
   0.2201E-02 (  1,126,179)  0.5952E-03 (  1,126,181)  0.1749E-03 (  1,130,185)  0.5549E-04 (  1,129,185)


     1 CALLS TO GCG PACKAGE FOR TRANSPORT TIME STEP   1 IN FLOW TIME STEP   1 STRESS PERIOD   2
    10 TOTAL ITERATIONS
  MAXIMUM CONCENTRATION CHANGES FOR EACH ITERATION:
  MAX. CHANGE LAYER,ROW,COL MAX. CHANGE LAYER,ROW,COL MAX. CHANGE LAYER,ROW,COL MAX. CHANGE LAYER,ROW,COL MAX. CHANGE LAYER,ROW,COL
 ------------------------------------------------------------------------------------------------------------------------------------
    1.128     (  1, 78, 93)  0.4216     (  1, 79, 91)  0.9171E-01 (  1, 79, 91)  0.2560E-01 (  1, 40, 99)  0.7994E-02 (  1, 40,113)
   0.2434E-02 (  1, 41,114)  0.9401E-03 (  1, 40,114)  0.3217E-03 (  1, 40,115)  0.1084E-03 (  1, 40,114)  0.3141E-04 (  1, 40,115)


     1 CALLS TO GCG PACKAGE FOR TRANSPORT TIME STEP   1 IN FLOW TIME STEP   1 STRESS PERIOD   2
     9 TOTAL ITERATIONS
  MAXIMUM CONCENTRATION CHANGES FOR EACH ITERATION:
  MAX. CHANGE LAYER,ROW,COL MAX. CHANGE LAYER,ROW,COL MAX. CHANGE LAYER,ROW,COL MAX. CHANGE LAYER,ROW,COL MAX. CHANGE LAYER,ROW,COL
 ------------------------------------------------------------------------------------------------------------------------------------
   0.9225     (  1,133,185)  0.1939     (  1,130,184)  0.8365E-01 (  1,129,183)  0.2847E-01 (  1,129,185)  0.7932E-02 (  1,132,181)
   0.2324E-02 (  1,126,179)  0.6062E-03 (  1,126,181)  0.1616E-03 (  1,130,185)  0.5037E-04 (  1,129,185)



 >>>>>>>>>>>>>>>>>>>>>>>>>>>>>>>>>>>>>>>>>>>>>>>>>>>>>>>FOR COMPONENT NO. 01<<<<<<<<<<<<<<<<<<<<<<<<<<<<<<<<<<<<<<<<<<<<<<<<<<<<<<<


                                            -------------------------------------------
                                                      TRANSPORT STEP NO.    1
                                            -------------------------------------------

 TOTAL ELAPSED TIME SINCE BEGINNING OF SIMULATION =   190.0000       d
 .....................................................................

                     CUMMULATIVE MASS BUDGETS AT END OF TRANSPORT STEP    1, TIME STEP    1, STRESS PERIOD    2
                     ------------------------------------------------------------------------------------------

                                                             IN                           OUT
                                                      ----------------             ----------------
                               CONSTANT CONCENTRATION:    0.000000                    0.000000    
                                        CONSTANT HEAD:    0.000000                  -0.8718564E-22
                                             RECHARGE:    2269284.                    0.000000    
                                   EVAPOTRANSPIRATION:    0.000000                    4.752986    
                                MASS STORAGE (SOLUTE):    1788.314                   -2271054.    
                            ---------------------------------------------------------------------------
                                              [TOTAL]:    2271072.       mg          -2271049.       mg

                                                          NET (IN - OUT):    23.00000    
                                                   DISCREPANCY (PERCENT):   0.1012743E-02



 >>>>>>>>>>>>>>>>>>>>>>>>>>>>>>>>>>>>>>>>>>>>>>>>>>>>>>>FOR COMPONENT NO. 02<<<<<<<<<<<<<<<<<<<<<<<<<<<<<<<<<<<<<<<<<<<<<<<<<<<<<<<


                                            -------------------------------------------
                                                      TRANSPORT STEP NO.    1
                                            -------------------------------------------

 TOTAL ELAPSED TIME SINCE BEGINNING OF SIMULATION =   190.0000       d
 .....................................................................

                     CUMMULATIVE MASS BUDGETS AT END OF TRANSPORT STEP    1, TIME STEP    1, STRESS PERIOD    2
                     ------------------------------------------------------------------------------------------

                                                             IN                           OUT
                                                      ----------------             ----------------
                               CONSTANT CONCENTRATION:    0.000000                    0.000000    
                                        CONSTANT HEAD:    0.000000                  -0.8715480E-23
                                             RECHARGE:    221165.9                    0.000000    
                                   EVAPOTRANSPIRATION:    0.000000                   0.4642843    
                                MASS STORAGE (SOLUTE):    173.7299                   -221337.7    
                            ---------------------------------------------------------------------------
                                              [TOTAL]:    221339.6       mg          -221337.2       mg

                                                          NET (IN - OUT):    2.375000    
                                                   DISCREPANCY (PERCENT):   0.1073018E-02



 >>>>>>>>>>>>>>>>>>>>>>>>>>>>>>>>>>>>>>>>>>>>>>>>>>>>>>>FOR COMPONENT NO. 03<<<<<<<<<<<<<<<<<<<<<<<<<<<<<<<<<<<<<<<<<<<<<<<<<<<<<<<


                                            -------------------------------------------
                                                      TRANSPORT STEP NO.    1
                                            -------------------------------------------

 TOTAL ELAPSED TIME SINCE BEGINNING OF SIMULATION =   190.0000       d
 .....................................................................

                     CUMMULATIVE MASS BUDGETS AT END OF TRANSPORT STEP    1, TIME STEP    1, STRESS PERIOD    2
                     ------------------------------------------------------------------------------------------

                                                             IN                           OUT
                                                      ----------------             ----------------
                               CONSTANT CONCENTRATION:    0.000000                    0.000000    
                                        CONSTANT HEAD:    0.000000                  -0.1163506E-22
                                             RECHARGE:    8097.918                    0.000000    
                                   EVAPOTRANSPIRATION:    0.000000                   0.1294229E-01
                                MASS STORAGE (SOLUTE):    3.694149                   -8101.535    
                            ---------------------------------------------------------------------------
                                              [TOTAL]:    8101.613       mg          -8101.521       mg

                                                          NET (IN - OUT):   0.9130859E-01
                                                   DISCREPANCY (PERCENT):   0.1127049E-02



 >>>>>>>>>>>>>>>>>>>>>>>>>>>>>>>>>>>>>>>>>>>>>>>>>>>>>>>FOR COMPONENT NO. 04<<<<<<<<<<<<<<<<<<<<<<<<<<<<<<<<<<<<<<<<<<<<<<<<<<<<<<<


                                            -------------------------------------------
                                                      TRANSPORT STEP NO.    1
                                            -------------------------------------------

 TOTAL ELAPSED TIME SINCE BEGINNING OF SIMULATION =   190.0000       d
 .....................................................................

                     CUMMULATIVE MASS BUDGETS AT END OF TRANSPORT STEP    1, TIME STEP    1, STRESS PERIOD    2
                     ------------------------------------------------------------------------------------------

                                                             IN                           OUT
                                                      ----------------             ----------------
                               CONSTANT CONCENTRATION:    0.000000                    0.000000    
                                        CONSTANT HEAD:    0.000000                    0.000000    
                                             RECHARGE:    1479.366                    0.000000    
                                   EVAPOTRANSPIRATION:    0.000000                   0.5809061E-02
                                MASS STORAGE (SOLUTE):    2.843660                   -1482.203    
                            ---------------------------------------------------------------------------
                                              [TOTAL]:    1482.210       mg          -1482.198       mg

                                                          NET (IN - OUT):   0.1208496E-01
                                                   DISCREPANCY (PERCENT):   0.8153374E-03


                                          ================================================
                                                         TIME STEP NO.  002
                                          ================================================

 FROM TIME =   190.00     TO    280.00    



     1 CALLS TO GCG PACKAGE FOR TRANSPORT TIME STEP   1 IN FLOW TIME STEP   2 STRESS PERIOD   2
     8 TOTAL ITERATIONS
  MAXIMUM CONCENTRATION CHANGES FOR EACH ITERATION:
  MAX. CHANGE LAYER,ROW,COL MAX. CHANGE LAYER,ROW,COL MAX. CHANGE LAYER,ROW,COL MAX. CHANGE LAYER,ROW,COL MAX. CHANGE LAYER,ROW,COL
 ------------------------------------------------------------------------------------------------------------------------------------
   0.4798     (  1,133,185)  0.1096     (  1,133,185)  0.4663E-01 (  1,129,183)  0.1636E-01 (  1,129,185)  0.4091E-02 (  1,132,181)
   0.1129E-02 (  1,126,179)  0.3309E-03 (  1,128,183)  0.8845E-04 (  1,129,183)


     1 CALLS TO GCG PACKAGE FOR TRANSPORT TIME STEP   1 IN FLOW TIME STEP   2 STRESS PERIOD   2
     8 TOTAL ITERATIONS
  MAXIMUM CONCENTRATION CHANGES FOR EACH ITERATION:
  MAX. CHANGE LAYER,ROW,COL MAX. CHANGE LAYER,ROW,COL MAX. CHANGE LAYER,ROW,COL MAX. CHANGE LAYER,ROW,COL MAX. CHANGE LAYER,ROW,COL
 ------------------------------------------------------------------------------------------------------------------------------------
   0.4799     (  1,133,185)  0.1100     (  1,133,185)  0.4675E-01 (  1,129,183)  0.1640E-01 (  1,129,185)  0.4113E-02 (  1,132,181)
   0.1129E-02 (  1,126,179)  0.3313E-03 (  1,128,183)  0.8869E-04 (  1,129,183)


     1 CALLS TO GCG PACKAGE FOR TRANSPORT TIME STEP   1 IN FLOW TIME STEP   2 STRESS PERIOD   2
     9 TOTAL ITERATIONS
  MAXIMUM CONCENTRATION CHANGES FOR EACH ITERATION:
  MAX. CHANGE LAYER,ROW,COL MAX. CHANGE LAYER,ROW,COL MAX. CHANGE LAYER,ROW,COL MAX. CHANGE LAYER,ROW,COL MAX. CHANGE LAYER,ROW,COL
 ------------------------------------------------------------------------------------------------------------------------------------
   0.5975     (  1, 78, 93)  0.2192     (  1, 79, 91)  0.5619E-01 (  1, 79, 91)  0.1266E-01 (  1, 40, 99)  0.3847E-02 (  1, 40,113)
   0.1171E-02 (  1, 41,114)  0.4497E-03 (  1, 40,114)  0.1545E-03 (  1, 40, 89)  0.4745E-04 (  1, 40,114)


     1 CALLS TO GCG PACKAGE FOR TRANSPORT TIME STEP   1 IN FLOW TIME STEP   2 STRESS PERIOD   2
     8 TOTAL ITERATIONS
  MAXIMUM CONCENTRATION CHANGES FOR EACH ITERATION:
  MAX. CHANGE LAYER,ROW,COL MAX. CHANGE LAYER,ROW,COL MAX. CHANGE LAYER,ROW,COL MAX. CHANGE LAYER,ROW,COL MAX. CHANGE LAYER,ROW,COL
 ------------------------------------------------------------------------------------------------------------------------------------
   0.4702     (  1,133,185)  0.1073     (  1,130,187)  0.4680E-01 (  1,129,183)  0.1566E-01 (  1,129,185)  0.3959E-02 (  1,128,185)
   0.1201E-02 (  1,126,179)  0.3290E-03 (  1,126,181)  0.7778E-04 (  1,126,182)



 >>>>>>>>>>>>>>>>>>>>>>>>>>>>>>>>>>>>>>>>>>>>>>>>>>>>>>>FOR COMPONENT NO. 01<<<<<<<<<<<<<<<<<<<<<<<<<<<<<<<<<<<<<<<<<<<<<<<<<<<<<<<


                                            -------------------------------------------
                                                      TRANSPORT STEP NO.    1
                                            -------------------------------------------

 TOTAL ELAPSED TIME SINCE BEGINNING OF SIMULATION =   280.0000       d
 .....................................................................

                     CUMMULATIVE MASS BUDGETS AT END OF TRANSPORT STEP    1, TIME STEP    2, STRESS PERIOD    2
                     ------------------------------------------------------------------------------------------

                                                             IN                           OUT
                                                      ----------------             ----------------
                               CONSTANT CONCENTRATION:    0.000000                    0.000000    
                                        CONSTANT HEAD:    0.000000                  -0.5936072E-18
                                             RECHARGE:    3344210.                    0.000000    
                                   EVAPOTRANSPIRATION:    0.000000                    7.514255    
                                MASS STORAGE (SOLUTE):    2363.661                   -3346556.    
                            ---------------------------------------------------------------------------
                                              [TOTAL]:    3346573.       mg          -3346549.       mg

                                                          NET (IN - OUT):    24.25000    
                                                   DISCREPANCY (PERCENT):   0.7246245E-03



 >>>>>>>>>>>>>>>>>>>>>>>>>>>>>>>>>>>>>>>>>>>>>>>>>>>>>>>FOR COMPONENT NO. 02<<<<<<<<<<<<<<<<<<<<<<<<<<<<<<<<<<<<<<<<<<<<<<<<<<<<<<<


                                            -------------------------------------------
                                                      TRANSPORT STEP NO.    1
                                            -------------------------------------------

 TOTAL ELAPSED TIME SINCE BEGINNING OF SIMULATION =   280.0000       d
 .....................................................................

                     CUMMULATIVE MASS BUDGETS AT END OF TRANSPORT STEP    1, TIME STEP    2, STRESS PERIOD    2
                     ------------------------------------------------------------------------------------------

                                                             IN                           OUT
                                                      ----------------             ----------------
                               CONSTANT CONCENTRATION:    0.000000                    0.000000    
                                        CONSTANT HEAD:    0.000000                  -0.5940565E-19
                                             RECHARGE:    325928.8                    0.000000    
                                   EVAPOTRANSPIRATION:    0.000000                   0.7342232    
                                MASS STORAGE (SOLUTE):    230.6426                   -326157.7    
                            ---------------------------------------------------------------------------
                                              [TOTAL]:    326159.5       mg          -326157.0       mg

                                                          NET (IN - OUT):    2.500000    
                                                   DISCREPANCY (PERCENT):   0.7664991E-03



 >>>>>>>>>>>>>>>>>>>>>>>>>>>>>>>>>>>>>>>>>>>>>>>>>>>>>>>FOR COMPONENT NO. 03<<<<<<<<<<<<<<<<<<<<<<<<<<<<<<<<<<<<<<<<<<<<<<<<<<<<<<<


                                            -------------------------------------------
                                                      TRANSPORT STEP NO.    1
                                            -------------------------------------------

 TOTAL ELAPSED TIME SINCE BEGINNING OF SIMULATION =   280.0000       d
 .....................................................................

                     CUMMULATIVE MASS BUDGETS AT END OF TRANSPORT STEP    1, TIME STEP    2, STRESS PERIOD    2
                     ------------------------------------------------------------------------------------------

                                                             IN                           OUT
                                                      ----------------             ----------------
                               CONSTANT CONCENTRATION:    0.000000                    0.000000    
                                        CONSTANT HEAD:    0.000000                  -0.4705624E-20
                                             RECHARGE:    11933.78                    0.000000    
                                   EVAPOTRANSPIRATION:    0.000000                   0.2070010E-01
                                MASS STORAGE (SOLUTE):    5.975303                   -11939.62    
                            ---------------------------------------------------------------------------
                                              [TOTAL]:    11939.75       mg          -11939.60       mg

                                                          NET (IN - OUT):   0.1503906    
                                                   DISCREPANCY (PERCENT):   0.1259587E-02



 >>>>>>>>>>>>>>>>>>>>>>>>>>>>>>>>>>>>>>>>>>>>>>>>>>>>>>>FOR COMPONENT NO. 04<<<<<<<<<<<<<<<<<<<<<<<<<<<<<<<<<<<<<<<<<<<<<<<<<<<<<<<


                                            -------------------------------------------
                                                      TRANSPORT STEP NO.    1
                                            -------------------------------------------

 TOTAL ELAPSED TIME SINCE BEGINNING OF SIMULATION =   280.0000       d
 .....................................................................

                     CUMMULATIVE MASS BUDGETS AT END OF TRANSPORT STEP    1, TIME STEP    2, STRESS PERIOD    2
                     ------------------------------------------------------------------------------------------

                                                             IN                           OUT
                                                      ----------------             ----------------
                               CONSTANT CONCENTRATION:    0.000000                    0.000000    
                                        CONSTANT HEAD:    0.000000                    0.000000    
                                             RECHARGE:    2180.118                    0.000000    
                                   EVAPOTRANSPIRATION:    0.000000                   0.9055750E-02
                                MASS STORAGE (SOLUTE):    3.161482                   -2183.292    
                            ---------------------------------------------------------------------------
                                              [TOTAL]:    2183.280       mg          -2183.283       mg

                                                          NET (IN - OUT):  -0.3173828E-02
                                                   DISCREPANCY (PERCENT):  -0.1453696E-03


                                          ================================================
                                                         TIME STEP NO.  003
                                          ================================================

 FROM TIME =   280.00     TO    370.00    



     1 CALLS TO GCG PACKAGE FOR TRANSPORT TIME STEP   1 IN FLOW TIME STEP   3 STRESS PERIOD   2
     8 TOTAL ITERATIONS
  MAXIMUM CONCENTRATION CHANGES FOR EACH ITERATION:
  MAX. CHANGE LAYER,ROW,COL MAX. CHANGE LAYER,ROW,COL MAX. CHANGE LAYER,ROW,COL MAX. CHANGE LAYER,ROW,COL MAX. CHANGE LAYER,ROW,COL
 ------------------------------------------------------------------------------------------------------------------------------------
   0.3267     (  1,131,182)  0.8014E-01 (  1,130,187)  0.3560E-01 (  1,129,183)  0.1125E-01 (  1,129,185)  0.2813E-02 (  1,128,185)
   0.8647E-03 (  1,129,183)  0.2373E-03 (  1,128,183)  0.6455E-04 (  1,128,184)


     1 CALLS TO GCG PACKAGE FOR TRANSPORT TIME STEP   1 IN FLOW TIME STEP   3 STRESS PERIOD   2
     8 TOTAL ITERATIONS
  MAXIMUM CONCENTRATION CHANGES FOR EACH ITERATION:
  MAX. CHANGE LAYER,ROW,COL MAX. CHANGE LAYER,ROW,COL MAX. CHANGE LAYER,ROW,COL MAX. CHANGE LAYER,ROW,COL MAX. CHANGE LAYER,ROW,COL
 ------------------------------------------------------------------------------------------------------------------------------------
   0.3268     (  1,131,182)  0.8019E-01 (  1,130,187)  0.3569E-01 (  1,129,183)  0.1128E-01 (  1,129,185)  0.2820E-02 (  1,128,185)
   0.8647E-03 (  1,129,183)  0.2396E-03 (  1,128,183)  0.6551E-04 (  1,128,184)


     1 CALLS TO GCG PACKAGE FOR TRANSPORT TIME STEP   1 IN FLOW TIME STEP   3 STRESS PERIOD   2
     9 TOTAL ITERATIONS
  MAXIMUM CONCENTRATION CHANGES FOR EACH ITERATION:
  MAX. CHANGE LAYER,ROW,COL MAX. CHANGE LAYER,ROW,COL MAX. CHANGE LAYER,ROW,COL MAX. CHANGE LAYER,ROW,COL MAX. CHANGE LAYER,ROW,COL
 ------------------------------------------------------------------------------------------------------------------------------------
   0.4032     (  1, 78, 92)  0.1447     (  1, 79, 91)  0.3995E-01 (  1, 79, 91)  0.8160E-02 (  1, 40, 99)  0.2754E-02 (  1, 79, 91)
   0.7949E-03 (  1, 41,114)  0.2989E-03 (  1, 40,114)  0.1006E-03 (  1, 40, 89)  0.2992E-04 (  1, 40,114)


     1 CALLS TO GCG PACKAGE FOR TRANSPORT TIME STEP   1 IN FLOW TIME STEP   3 STRESS PERIOD   2
     8 TOTAL ITERATIONS
  MAXIMUM CONCENTRATION CHANGES FOR EACH ITERATION:
  MAX. CHANGE LAYER,ROW,COL MAX. CHANGE LAYER,ROW,COL MAX. CHANGE LAYER,ROW,COL MAX. CHANGE LAYER,ROW,COL MAX. CHANGE LAYER,ROW,COL
 ------------------------------------------------------------------------------------------------------------------------------------
   0.3193     (  1,131,182)  0.7948E-01 (  1,130,187)  0.3584E-01 (  1,129,183)  0.1065E-01 (  1,129,185)  0.2736E-02 (  1,128,185)
   0.8619E-03 (  1,126,179)  0.2212E-03 (  1,126,181)  0.5615E-04 (  1,133,185)



 >>>>>>>>>>>>>>>>>>>>>>>>>>>>>>>>>>>>>>>>>>>>>>>>>>>>>>>FOR COMPONENT NO. 01<<<<<<<<<<<<<<<<<<<<<<<<<<<<<<<<<<<<<<<<<<<<<<<<<<<<<<<


                                            -------------------------------------------
                                                      TRANSPORT STEP NO.    1
                                            -------------------------------------------

 TOTAL ELAPSED TIME SINCE BEGINNING OF SIMULATION =   370.0000       d
 .....................................................................

                     CUMMULATIVE MASS BUDGETS AT END OF TRANSPORT STEP    1, TIME STEP    3, STRESS PERIOD    2
                     ------------------------------------------------------------------------------------------

                                                             IN                           OUT
                                                      ----------------             ----------------
                               CONSTANT CONCENTRATION:    0.000000                    0.000000    
                                        CONSTANT HEAD:    0.000000                  -0.1328766E-16
                                             RECHARGE:    4419136.                    0.000000    
                                   EVAPOTRANSPIRATION:    0.000000                    12.25556    
                                MASS STORAGE (SOLUTE):    3173.853                   -4422289.    
                            ---------------------------------------------------------------------------
                                              [TOTAL]:    4422310.       mg          -4422276.       mg

                                                          NET (IN - OUT):    33.00000    
                                                   DISCREPANCY (PERCENT):   0.7462192E-03



 >>>>>>>>>>>>>>>>>>>>>>>>>>>>>>>>>>>>>>>>>>>>>>>>>>>>>>>FOR COMPONENT NO. 02<<<<<<<<<<<<<<<<<<<<<<<<<<<<<<<<<<<<<<<<<<<<<<<<<<<<<<<


                                            -------------------------------------------
                                                      TRANSPORT STEP NO.    1
                                            -------------------------------------------

 TOTAL ELAPSED TIME SINCE BEGINNING OF SIMULATION =   370.0000       d
 .....................................................................

                     CUMMULATIVE MASS BUDGETS AT END OF TRANSPORT STEP    1, TIME STEP    3, STRESS PERIOD    2
                     ------------------------------------------------------------------------------------------

                                                             IN                           OUT
                                                      ----------------             ----------------
                               CONSTANT CONCENTRATION:    0.000000                    0.000000    
                                        CONSTANT HEAD:    0.000000                  -0.1329673E-17
                                             RECHARGE:    430691.8                    0.000000    
                                   EVAPOTRANSPIRATION:    0.000000                    1.196142    
                                MASS STORAGE (SOLUTE):    310.6401                   -431000.2    
                            ---------------------------------------------------------------------------
                                              [TOTAL]:    431002.4       mg          -430999.0       mg

                                                          NET (IN - OUT):    3.343750    
                                                   DISCREPANCY (PERCENT):   0.7758109E-03



 >>>>>>>>>>>>>>>>>>>>>>>>>>>>>>>>>>>>>>>>>>>>>>>>>>>>>>>FOR COMPONENT NO. 03<<<<<<<<<<<<<<<<<<<<<<<<<<<<<<<<<<<<<<<<<<<<<<<<<<<<<<<


                                            -------------------------------------------
                                                      TRANSPORT STEP NO.    1
                                            -------------------------------------------

 TOTAL ELAPSED TIME SINCE BEGINNING OF SIMULATION =   370.0000       d
 .....................................................................

                     CUMMULATIVE MASS BUDGETS AT END OF TRANSPORT STEP    1, TIME STEP    3, STRESS PERIOD    2
                     ------------------------------------------------------------------------------------------

                                                             IN                           OUT
                                                      ----------------             ----------------
                               CONSTANT CONCENTRATION:    0.000000                    0.000000    
                                        CONSTANT HEAD:    0.000000                  -0.8693374E-19
                                             RECHARGE:    15769.64                    0.000000    
                                   EVAPOTRANSPIRATION:    0.000000                   0.3350120E-01
                                MASS STORAGE (SOLUTE):    9.221937                   -15778.65    
                            ---------------------------------------------------------------------------
                                              [TOTAL]:    15778.86       mg          -15778.61       mg

                                                          NET (IN - OUT):   0.2431641    
                                                   DISCREPANCY (PERCENT):   0.1541087E-02



 >>>>>>>>>>>>>>>>>>>>>>>>>>>>>>>>>>>>>>>>>>>>>>>>>>>>>>>FOR COMPONENT NO. 04<<<<<<<<<<<<<<<<<<<<<<<<<<<<<<<<<<<<<<<<<<<<<<<<<<<<<<<


                                            -------------------------------------------
                                                      TRANSPORT STEP NO.    1
                                            -------------------------------------------

 TOTAL ELAPSED TIME SINCE BEGINNING OF SIMULATION =   370.0000       d
 .....................................................................

                     CUMMULATIVE MASS BUDGETS AT END OF TRANSPORT STEP    1, TIME STEP    3, STRESS PERIOD    2
                     ------------------------------------------------------------------------------------------

                                                             IN                           OUT
                                                      ----------------             ----------------
                               CONSTANT CONCENTRATION:    0.000000                    0.000000    
                                        CONSTANT HEAD:    0.000000                    0.000000    
                                             RECHARGE:    2880.871                    0.000000    
                                   EVAPOTRANSPIRATION:    0.000000                   0.1478890E-01
                                MASS STORAGE (SOLUTE):    3.571539                   -2884.472    
                            ---------------------------------------------------------------------------
                                              [TOTAL]:    2884.442       mg          -2884.458       mg

                                                          NET (IN - OUT):  -0.1538086E-01
                                                   DISCREPANCY (PERCENT):  -0.5332337E-03


                                          ================================================
                                                         TIME STEP NO.  004
                                          ================================================

 FROM TIME =   370.00     TO    460.00    



     1 CALLS TO GCG PACKAGE FOR TRANSPORT TIME STEP   1 IN FLOW TIME STEP   4 STRESS PERIOD   2
     8 TOTAL ITERATIONS
  MAXIMUM CONCENTRATION CHANGES FOR EACH ITERATION:
  MAX. CHANGE LAYER,ROW,COL MAX. CHANGE LAYER,ROW,COL MAX. CHANGE LAYER,ROW,COL MAX. CHANGE LAYER,ROW,COL MAX. CHANGE LAYER,ROW,COL
 ------------------------------------------------------------------------------------------------------------------------------------
   0.2517     (  1,131,182)  0.6536E-01 (  1,130,187)  0.2988E-01 (  1,130,185)  0.8536E-02 (  1,129,185)  0.2256E-02 (  1,128,185)
   0.7125E-03 (  1,129,183)  0.1874E-03 (  1,128,183)  0.5287E-04 (  1,128,184)


     1 CALLS TO GCG PACKAGE FOR TRANSPORT TIME STEP   1 IN FLOW TIME STEP   4 STRESS PERIOD   2
     8 TOTAL ITERATIONS
  MAXIMUM CONCENTRATION CHANGES FOR EACH ITERATION:
  MAX. CHANGE LAYER,ROW,COL MAX. CHANGE LAYER,ROW,COL MAX. CHANGE LAYER,ROW,COL MAX. CHANGE LAYER,ROW,COL MAX. CHANGE LAYER,ROW,COL
 ------------------------------------------------------------------------------------------------------------------------------------
   0.2520     (  1,131,182)  0.6546E-01 (  1,130,187)  0.2995E-01 (  1,130,185)  0.8563E-02 (  1,129,185)  0.2264E-02 (  1,128,185)
   0.7147E-03 (  1,129,183)  0.1901E-03 (  1,128,183)  0.5406E-04 (  1,128,184)


     1 CALLS TO GCG PACKAGE FOR TRANSPORT TIME STEP   1 IN FLOW TIME STEP   4 STRESS PERIOD   2
     8 TOTAL ITERATIONS
  MAXIMUM CONCENTRATION CHANGES FOR EACH ITERATION:
  MAX. CHANGE LAYER,ROW,COL MAX. CHANGE LAYER,ROW,COL MAX. CHANGE LAYER,ROW,COL MAX. CHANGE LAYER,ROW,COL MAX. CHANGE LAYER,ROW,COL
 ------------------------------------------------------------------------------------------------------------------------------------
   0.3037     (  1, 78, 92)  0.1064     (  1, 79, 91)  0.3030E-01 (  1, 79, 91)  0.5967E-02 (  1, 40, 99)  0.2214E-02 (  1, 79, 91)
   0.6154E-03 (  1, 41,114)  0.2252E-03 (  1, 40,114)  0.7433E-04 (  1, 40, 89)


     1 CALLS TO GCG PACKAGE FOR TRANSPORT TIME STEP   1 IN FLOW TIME STEP   4 STRESS PERIOD   2
     8 TOTAL ITERATIONS
  MAXIMUM CONCENTRATION CHANGES FOR EACH ITERATION:
  MAX. CHANGE LAYER,ROW,COL MAX. CHANGE LAYER,ROW,COL MAX. CHANGE LAYER,ROW,COL MAX. CHANGE LAYER,ROW,COL MAX. CHANGE LAYER,ROW,COL
 ------------------------------------------------------------------------------------------------------------------------------------
   0.2452     (  1,131,182)  0.6417E-01 (  1,130,187)  0.3011E-01 (  1,130,185)  0.8088E-02 (  1,129,185)  0.2182E-02 (  1,128,185)
   0.6955E-03 (  1,126,179)  0.1682E-03 (  1,127,179)  0.4554E-04 (  1,133,185)



 >>>>>>>>>>>>>>>>>>>>>>>>>>>>>>>>>>>>>>>>>>>>>>>>>>>>>>>FOR COMPONENT NO. 01<<<<<<<<<<<<<<<<<<<<<<<<<<<<<<<<<<<<<<<<<<<<<<<<<<<<<<<


                                            -------------------------------------------
                                                      TRANSPORT STEP NO.    1
                                            -------------------------------------------

 TOTAL ELAPSED TIME SINCE BEGINNING OF SIMULATION =   460.0000       d
 .....................................................................

                     CUMMULATIVE MASS BUDGETS AT END OF TRANSPORT STEP    1, TIME STEP    4, STRESS PERIOD    2
                     ------------------------------------------------------------------------------------------

                                                             IN                           OUT
                                                      ----------------             ----------------
                               CONSTANT CONCENTRATION:    0.000000                    0.000000    
                                        CONSTANT HEAD:    0.000000                  -0.1579238E-15
                                             RECHARGE:    5494062.                    0.000000    
                                   EVAPOTRANSPIRATION:    0.000000                    19.37857    
                                MASS STORAGE (SOLUTE):    4153.852                   -5498181.    
                            ---------------------------------------------------------------------------
                                              [TOTAL]:    5498216.       mg          -5498162.       mg

                                                          NET (IN - OUT):    54.00000    
                                                   DISCREPANCY (PERCENT):   0.9821417E-03



 >>>>>>>>>>>>>>>>>>>>>>>>>>>>>>>>>>>>>>>>>>>>>>>>>>>>>>>FOR COMPONENT NO. 02<<<<<<<<<<<<<<<<<<<<<<<<<<<<<<<<<<<<<<<<<<<<<<<<<<<<<<<


                                            -------------------------------------------
                                                      TRANSPORT STEP NO.    1
                                            -------------------------------------------

 TOTAL ELAPSED TIME SINCE BEGINNING OF SIMULATION =   460.0000       d
 .....................................................................

                     CUMMULATIVE MASS BUDGETS AT END OF TRANSPORT STEP    1, TIME STEP    4, STRESS PERIOD    2
                     ------------------------------------------------------------------------------------------

                                                             IN                           OUT
                                                      ----------------             ----------------
                               CONSTANT CONCENTRATION:    0.000000                    0.000000    
                                        CONSTANT HEAD:    0.000000                  -0.1580038E-16
                                             RECHARGE:    535454.7                    0.000000    
                                   EVAPOTRANSPIRATION:    0.000000                    1.887936    
                                MASS STORAGE (SOLUTE):    407.3049                   -535858.5    
                            ---------------------------------------------------------------------------
                                              [TOTAL]:    535862.0       mg          -535856.6       mg

                                                          NET (IN - OUT):    5.375000    
                                                   DISCREPANCY (PERCENT):   0.1003062E-02



 >>>>>>>>>>>>>>>>>>>>>>>>>>>>>>>>>>>>>>>>>>>>>>>>>>>>>>>FOR COMPONENT NO. 03<<<<<<<<<<<<<<<<<<<<<<<<<<<<<<<<<<<<<<<<<<<<<<<<<<<<<<<


                                            -------------------------------------------
                                                      TRANSPORT STEP NO.    1
                                            -------------------------------------------

 TOTAL ELAPSED TIME SINCE BEGINNING OF SIMULATION =   460.0000       d
 .....................................................................

                     CUMMULATIVE MASS BUDGETS AT END OF TRANSPORT STEP    1, TIME STEP    4, STRESS PERIOD    2
                     ------------------------------------------------------------------------------------------

                                                             IN                           OUT
                                                      ----------------             ----------------
                               CONSTANT CONCENTRATION:    0.000000                    0.000000    
                                        CONSTANT HEAD:    0.000000                  -0.8998642E-18
                                             RECHARGE:    19605.49                    0.000000    
                                   EVAPOTRANSPIRATION:    0.000000                   0.5272701E-01
                                MASS STORAGE (SOLUTE):    13.24478                   -19618.43    
                            ---------------------------------------------------------------------------
                                              [TOTAL]:    19618.74       mg          -19618.38       mg

                                                          NET (IN - OUT):   0.3593750    
                                                   DISCREPANCY (PERCENT):   0.1831811E-02



 >>>>>>>>>>>>>>>>>>>>>>>>>>>>>>>>>>>>>>>>>>>>>>>>>>>>>>>FOR COMPONENT NO. 04<<<<<<<<<<<<<<<<<<<<<<<<<<<<<<<<<<<<<<<<<<<<<<<<<<<<<<<


                                            -------------------------------------------
                                                      TRANSPORT STEP NO.    1
                                            -------------------------------------------

 TOTAL ELAPSED TIME SINCE BEGINNING OF SIMULATION =   460.0000       d
 .....................................................................

                     CUMMULATIVE MASS BUDGETS AT END OF TRANSPORT STEP    1, TIME STEP    4, STRESS PERIOD    2
                     ------------------------------------------------------------------------------------------

                                                             IN                           OUT
                                                      ----------------             ----------------
                               CONSTANT CONCENTRATION:    0.000000                    0.000000    
                                        CONSTANT HEAD:    0.000000                    0.000000    
                                             RECHARGE:    3581.623                    0.000000    
                                   EVAPOTRANSPIRATION:    0.000000                   0.2317088E-01
                                MASS STORAGE (SOLUTE):    3.994685                   -3585.665    
                            ---------------------------------------------------------------------------
                                              [TOTAL]:    3585.618       mg          -3585.642       mg

                                                          NET (IN - OUT):  -0.2416992E-01
                                                   DISCREPANCY (PERCENT):  -0.6740774E-03


                                          ================================================
                                                         TIME STEP NO.  005
                                          ================================================

 FROM TIME =   460.00     TO    550.00    



     1 CALLS TO GCG PACKAGE FOR TRANSPORT TIME STEP   1 IN FLOW TIME STEP   5 STRESS PERIOD   2
     8 TOTAL ITERATIONS
  MAXIMUM CONCENTRATION CHANGES FOR EACH ITERATION:
  MAX. CHANGE LAYER,ROW,COL MAX. CHANGE LAYER,ROW,COL MAX. CHANGE LAYER,ROW,COL MAX. CHANGE LAYER,ROW,COL MAX. CHANGE LAYER,ROW,COL
 ------------------------------------------------------------------------------------------------------------------------------------
   0.2073     (  1,131,182)  0.5607E-01 (  1,130,187)  0.2614E-01 (  1,130,185)  0.6998E-02 (  1,129,185)  0.1947E-02 (  1,128,185)
   0.6136E-03 (  1,129,183)  0.1634E-03 (  1,129,184)  0.4566E-04 (  1,133,185)


     1 CALLS TO GCG PACKAGE FOR TRANSPORT TIME STEP   1 IN FLOW TIME STEP   5 STRESS PERIOD   2
     8 TOTAL ITERATIONS
  MAXIMUM CONCENTRATION CHANGES FOR EACH ITERATION:
  MAX. CHANGE LAYER,ROW,COL MAX. CHANGE LAYER,ROW,COL MAX. CHANGE LAYER,ROW,COL MAX. CHANGE LAYER,ROW,COL MAX. CHANGE LAYER,ROW,COL
 ------------------------------------------------------------------------------------------------------------------------------------
   0.2075     (  1,131,182)  0.5619E-01 (  1,130,187)  0.2622E-01 (  1,130,185)  0.7015E-02 (  1,129,185)  0.1956E-02 (  1,128,185)
   0.6169E-03 (  1,129,183)  0.1650E-03 (  1,129,184)  0.4613E-04 (  1,133,185)


     1 CALLS TO GCG PACKAGE FOR TRANSPORT TIME STEP   1 IN FLOW TIME STEP   5 STRESS PERIOD   2
     8 TOTAL ITERATIONS
  MAXIMUM CONCENTRATION CHANGES FOR EACH ITERATION:
  MAX. CHANGE LAYER,ROW,COL MAX. CHANGE LAYER,ROW,COL MAX. CHANGE LAYER,ROW,COL MAX. CHANGE LAYER,ROW,COL MAX. CHANGE LAYER,ROW,COL
 ------------------------------------------------------------------------------------------------------------------------------------
   0.2429     (  1, 78, 92)  0.8337E-01 (  1, 79, 91)  0.2397E-01 (  1, 79, 91)  0.4712E-02 (  1, 40, 99)  0.1860E-02 (  1, 79, 91)
   0.5101E-03 (  1, 41,114)  0.1811E-03 (  1, 40,114)  0.5946E-04 (  1, 40,115)


     1 CALLS TO GCG PACKAGE FOR TRANSPORT TIME STEP   1 IN FLOW TIME STEP   5 STRESS PERIOD   2
     8 TOTAL ITERATIONS
  MAXIMUM CONCENTRATION CHANGES FOR EACH ITERATION:
  MAX. CHANGE LAYER,ROW,COL MAX. CHANGE LAYER,ROW,COL MAX. CHANGE LAYER,ROW,COL MAX. CHANGE LAYER,ROW,COL MAX. CHANGE LAYER,ROW,COL
 ------------------------------------------------------------------------------------------------------------------------------------
   0.2011     (  1,131,182)  0.5454E-01 (  1,130,187)  0.2630E-01 (  1,130,185)  0.6690E-02 (  1,129,185)  0.1869E-02 (  1,128,185)
   0.5929E-03 (  1,126,179)  0.1508E-03 (  1,130,184)  0.3874E-04 (  1,126,181)



 >>>>>>>>>>>>>>>>>>>>>>>>>>>>>>>>>>>>>>>>>>>>>>>>>>>>>>>FOR COMPONENT NO. 01<<<<<<<<<<<<<<<<<<<<<<<<<<<<<<<<<<<<<<<<<<<<<<<<<<<<<<<


                                            -------------------------------------------
                                                      TRANSPORT STEP NO.    1
                                            -------------------------------------------

 TOTAL ELAPSED TIME SINCE BEGINNING OF SIMULATION =   550.0000       d
 .....................................................................

                     CUMMULATIVE MASS BUDGETS AT END OF TRANSPORT STEP    1, TIME STEP    5, STRESS PERIOD    2
                     ------------------------------------------------------------------------------------------

                                                             IN                           OUT
                                                      ----------------             ----------------
                               CONSTANT CONCENTRATION:    0.000000                    0.000000    
                                        CONSTANT HEAD:    0.000000                  -0.1294893E-14
                                             RECHARGE:    6568988.                    0.000000    
                                   EVAPOTRANSPIRATION:    0.000000                    29.01518    
                                MASS STORAGE (SOLUTE):    5284.496                   -6574219.    
                            ---------------------------------------------------------------------------
                                              [TOTAL]:    6574272.       mg          -6574190.       mg

                                                          NET (IN - OUT):    82.00000    
                                                   DISCREPANCY (PERCENT):   0.1247294E-02



 >>>>>>>>>>>>>>>>>>>>>>>>>>>>>>>>>>>>>>>>>>>>>>>>>>>>>>>FOR COMPONENT NO. 02<<<<<<<<<<<<<<<<<<<<<<<<<<<<<<<<<<<<<<<<<<<<<<<<<<<<<<<


                                            -------------------------------------------
                                                      TRANSPORT STEP NO.    1
                                            -------------------------------------------

 TOTAL ELAPSED TIME SINCE BEGINNING OF SIMULATION =   550.0000       d
 .....................................................................

                     CUMMULATIVE MASS BUDGETS AT END OF TRANSPORT STEP    1, TIME STEP    5, STRESS PERIOD    2
                     ------------------------------------------------------------------------------------------

                                                             IN                           OUT
                                                      ----------------             ----------------
                               CONSTANT CONCENTRATION:    0.000000                    0.000000    
                                        CONSTANT HEAD:    0.000000                  -0.1295323E-15
                                             RECHARGE:    640217.6                    0.000000    
                                   EVAPOTRANSPIRATION:    0.000000                    2.821761    
                                MASS STORAGE (SOLUTE):    518.6726                   -640731.1    
                            ---------------------------------------------------------------------------
                                              [TOTAL]:    640736.3       mg          -640728.2       mg

                                                          NET (IN - OUT):    8.062500    
                                                   DISCREPANCY (PERCENT):   0.1258326E-02



 >>>>>>>>>>>>>>>>>>>>>>>>>>>>>>>>>>>>>>>>>>>>>>>>>>>>>>>FOR COMPONENT NO. 03<<<<<<<<<<<<<<<<<<<<<<<<<<<<<<<<<<<<<<<<<<<<<<<<<<<<<<<


                                            -------------------------------------------
                                                      TRANSPORT STEP NO.    1
                                            -------------------------------------------

 TOTAL ELAPSED TIME SINCE BEGINNING OF SIMULATION =   550.0000       d
 .....................................................................

                     CUMMULATIVE MASS BUDGETS AT END OF TRANSPORT STEP    1, TIME STEP    5, STRESS PERIOD    2
                     ------------------------------------------------------------------------------------------

                                                             IN                           OUT
                                                      ----------------             ----------------
                               CONSTANT CONCENTRATION:    0.000000                    0.000000    
                                        CONSTANT HEAD:    0.000000                  -0.6876212E-17
                                             RECHARGE:    23441.35                    0.000000    
                                   EVAPOTRANSPIRATION:    0.000000                   0.7936143E-01
                                MASS STORAGE (SOLUTE):    17.87800                   -23458.85    
                            ---------------------------------------------------------------------------
                                              [TOTAL]:    23459.23       mg          -23458.77       mg

                                                          NET (IN - OUT):   0.4570312    
                                                   DISCREPANCY (PERCENT):   0.1948213E-02



 >>>>>>>>>>>>>>>>>>>>>>>>>>>>>>>>>>>>>>>>>>>>>>>>>>>>>>>FOR COMPONENT NO. 04<<<<<<<<<<<<<<<<<<<<<<<<<<<<<<<<<<<<<<<<<<<<<<<<<<<<<<<


                                            -------------------------------------------
                                                      TRANSPORT STEP NO.    1
                                            -------------------------------------------

 TOTAL ELAPSED TIME SINCE BEGINNING OF SIMULATION =   550.0000       d
 .....................................................................

                     CUMMULATIVE MASS BUDGETS AT END OF TRANSPORT STEP    1, TIME STEP    5, STRESS PERIOD    2
                     ------------------------------------------------------------------------------------------

                                                             IN                           OUT
                                                      ----------------             ----------------
                               CONSTANT CONCENTRATION:    0.000000                    0.000000    
                                        CONSTANT HEAD:    0.000000                    0.000000    
                                             RECHARGE:    4282.375                    0.000000    
                                   EVAPOTRANSPIRATION:    0.000000                   0.3388198E-01
                                MASS STORAGE (SOLUTE):    4.471132                   -4286.911    
                            ---------------------------------------------------------------------------
                                              [TOTAL]:    4286.847       mg          -4286.877       mg

                                                          NET (IN - OUT):  -0.3027344E-01
                                                   DISCREPANCY (PERCENT):  -0.7061911E-03


                                          ================================================
                                                         TIME STEP NO.  006
                                          ================================================

 FROM TIME =   550.00     TO    640.00    



     1 CALLS TO GCG PACKAGE FOR TRANSPORT TIME STEP   1 IN FLOW TIME STEP   6 STRESS PERIOD   2
     8 TOTAL ITERATIONS
  MAXIMUM CONCENTRATION CHANGES FOR EACH ITERATION:
  MAX. CHANGE LAYER,ROW,COL MAX. CHANGE LAYER,ROW,COL MAX. CHANGE LAYER,ROW,COL MAX. CHANGE LAYER,ROW,COL MAX. CHANGE LAYER,ROW,COL
 ------------------------------------------------------------------------------------------------------------------------------------
   0.1785     (  1,131,182)  0.4988E-01 (  1,130,187)  0.2325E-01 (  1,130,185)  0.6087E-02 (  1,129,185)  0.1749E-02 (  1,128,183)
   0.5475E-03 (  1,129,183)  0.1508E-03 (  1,130,184)  0.4095E-04 (  1,129,183)


     1 CALLS TO GCG PACKAGE FOR TRANSPORT TIME STEP   1 IN FLOW TIME STEP   6 STRESS PERIOD   2
     8 TOTAL ITERATIONS
  MAXIMUM CONCENTRATION CHANGES FOR EACH ITERATION:
  MAX. CHANGE LAYER,ROW,COL MAX. CHANGE LAYER,ROW,COL MAX. CHANGE LAYER,ROW,COL MAX. CHANGE LAYER,ROW,COL MAX. CHANGE LAYER,ROW,COL
 ------------------------------------------------------------------------------------------------------------------------------------
   0.1788     (  1,131,182)  0.5002E-01 (  1,130,187)  0.2332E-01 (  1,130,185)  0.6095E-02 (  1,129,185)  0.1756E-02 (  1,128,185)
   0.5512E-03 (  1,129,183)  0.1501E-03 (  1,129,184)  0.4148E-04 (  1,129,183)


     1 CALLS TO GCG PACKAGE FOR TRANSPORT TIME STEP   1 IN FLOW TIME STEP   6 STRESS PERIOD   2
     8 TOTAL ITERATIONS
  MAXIMUM CONCENTRATION CHANGES FOR EACH ITERATION:
  MAX. CHANGE LAYER,ROW,COL MAX. CHANGE LAYER,ROW,COL MAX. CHANGE LAYER,ROW,COL MAX. CHANGE LAYER,ROW,COL MAX. CHANGE LAYER,ROW,COL
 ------------------------------------------------------------------------------------------------------------------------------------
   0.2018     (  1, 78, 92)  0.6820E-01 (  1, 79, 91)  0.1956E-01 (  1, 79, 91)  0.3914E-02 (  1, 40, 99)  0.1599E-02 (  1, 79, 91)
   0.4384E-03 (  1, 41,114)  0.1513E-03 (  1, 40,114)  0.5013E-04 (  1, 40,115)


     1 CALLS TO GCG PACKAGE FOR TRANSPORT TIME STEP   1 IN FLOW TIME STEP   6 STRESS PERIOD   2
     8 TOTAL ITERATIONS
  MAXIMUM CONCENTRATION CHANGES FOR EACH ITERATION:
  MAX. CHANGE LAYER,ROW,COL MAX. CHANGE LAYER,ROW,COL MAX. CHANGE LAYER,ROW,COL MAX. CHANGE LAYER,ROW,COL MAX. CHANGE LAYER,ROW,COL
 ------------------------------------------------------------------------------------------------------------------------------------
   0.1725     (  1,131,182)  0.4817E-01 (  1,129,185)  0.2334E-01 (  1,130,185)  0.5898E-02 (  1,129,185)  0.1665E-02 (  1,128,185)
   0.5258E-03 (  1,126,179)  0.1395E-03 (  1,130,184)  0.3460E-04 (  1,126,181)



 >>>>>>>>>>>>>>>>>>>>>>>>>>>>>>>>>>>>>>>>>>>>>>>>>>>>>>>FOR COMPONENT NO. 01<<<<<<<<<<<<<<<<<<<<<<<<<<<<<<<<<<<<<<<<<<<<<<<<<<<<<<<


                                            -------------------------------------------
                                                      TRANSPORT STEP NO.    1
                                            -------------------------------------------

 TOTAL ELAPSED TIME SINCE BEGINNING OF SIMULATION =   640.0000       d
 .....................................................................

                     CUMMULATIVE MASS BUDGETS AT END OF TRANSPORT STEP    1, TIME STEP    6, STRESS PERIOD    2
                     ------------------------------------------------------------------------------------------

                                                             IN                           OUT
                                                      ----------------             ----------------
                               CONSTANT CONCENTRATION:    0.000000                    0.000000    
                                        CONSTANT HEAD:    0.000000                  -0.7995343E-14
                                             RECHARGE:    7643914.                    0.000000    
                                   EVAPOTRANSPIRATION:    0.000000                    41.14870    
                                MASS STORAGE (SOLUTE):    6549.966                   -7650381.    
                            ---------------------------------------------------------------------------
                                              [TOTAL]:    7650464.       mg          -7650340.       mg

                                                          NET (IN - OUT):    123.5000    
                                                   DISCREPANCY (PERCENT):   0.1614294E-02



 >>>>>>>>>>>>>>>>>>>>>>>>>>>>>>>>>>>>>>>>>>>>>>>>>>>>>>>FOR COMPONENT NO. 02<<<<<<<<<<<<<<<<<<<<<<<<<<<<<<<<<<<<<<<<<<<<<<<<<<<<<<<


                                            -------------------------------------------
                                                      TRANSPORT STEP NO.    1
                                            -------------------------------------------

 TOTAL ELAPSED TIME SINCE BEGINNING OF SIMULATION =   640.0000       d
 .....................................................................

                     CUMMULATIVE MASS BUDGETS AT END OF TRANSPORT STEP    1, TIME STEP    6, STRESS PERIOD    2
                     ------------------------------------------------------------------------------------------

                                                             IN                           OUT
                                                      ----------------             ----------------
                               CONSTANT CONCENTRATION:    0.000000                    0.000000    
                                        CONSTANT HEAD:    0.000000                  -0.7996975E-15
                                             RECHARGE:    744980.6                    0.000000    
                                   EVAPOTRANSPIRATION:    0.000000                    3.995184    
                                MASS STORAGE (SOLUTE):    643.1688                   -745616.8    
                            ---------------------------------------------------------------------------
                                              [TOTAL]:    745623.8       mg          -745612.8       mg

                                                          NET (IN - OUT):    11.00000    
                                                   DISCREPANCY (PERCENT):   0.1475286E-02



 >>>>>>>>>>>>>>>>>>>>>>>>>>>>>>>>>>>>>>>>>>>>>>>>>>>>>>>FOR COMPONENT NO. 03<<<<<<<<<<<<<<<<<<<<<<<<<<<<<<<<<<<<<<<<<<<<<<<<<<<<<<<


                                            -------------------------------------------
                                                      TRANSPORT STEP NO.    1
                                            -------------------------------------------

 TOTAL ELAPSED TIME SINCE BEGINNING OF SIMULATION =   640.0000       d
 .....................................................................

                     CUMMULATIVE MASS BUDGETS AT END OF TRANSPORT STEP    1, TIME STEP    6, STRESS PERIOD    2
                     ------------------------------------------------------------------------------------------

                                                             IN                           OUT
                                                      ----------------             ----------------
                               CONSTANT CONCENTRATION:    0.000000                    0.000000    
                                        CONSTANT HEAD:    0.000000                  -0.4104631E-16
                                             RECHARGE:    27277.21                    0.000000    
                                   EVAPOTRANSPIRATION:    0.000000                   0.1136960    
                                MASS STORAGE (SOLUTE):    22.98936                   -27299.79    
                            ---------------------------------------------------------------------------
                                              [TOTAL]:    27300.20       mg          -27299.68       mg

                                                          NET (IN - OUT):   0.5214844    
                                                   DISCREPANCY (PERCENT):   0.1910203E-02



 >>>>>>>>>>>>>>>>>>>>>>>>>>>>>>>>>>>>>>>>>>>>>>>>>>>>>>>FOR COMPONENT NO. 04<<<<<<<<<<<<<<<<<<<<<<<<<<<<<<<<<<<<<<<<<<<<<<<<<<<<<<<


                                            -------------------------------------------
                                                      TRANSPORT STEP NO.    1
                                            -------------------------------------------

 TOTAL ELAPSED TIME SINCE BEGINNING OF SIMULATION =   640.0000       d
 .....................................................................

                     CUMMULATIVE MASS BUDGETS AT END OF TRANSPORT STEP    1, TIME STEP    6, STRESS PERIOD    2
                     ------------------------------------------------------------------------------------------

                                                             IN                           OUT
                                                      ----------------             ----------------
                               CONSTANT CONCENTRATION:    0.000000                    0.000000    
                                        CONSTANT HEAD:    0.000000                    0.000000    
                                             RECHARGE:    4983.128                    0.000000    
                                   EVAPOTRANSPIRATION:    0.000000                   0.4659974E-01
                                MASS STORAGE (SOLUTE):    5.036387                   -4988.244    
                            ---------------------------------------------------------------------------
                                              [TOTAL]:    4988.165       mg          -4988.198       mg

                                                          NET (IN - OUT):  -0.3320312E-01
                                                   DISCREPANCY (PERCENT):  -0.6656359E-03


                                          ================================================
                                                         TIME STEP NO.  007
                                          ================================================

 FROM TIME =   640.00     TO    730.00    



     1 CALLS TO GCG PACKAGE FOR TRANSPORT TIME STEP   1 IN FLOW TIME STEP   7 STRESS PERIOD   2
     8 TOTAL ITERATIONS
  MAXIMUM CONCENTRATION CHANGES FOR EACH ITERATION:
  MAX. CHANGE LAYER,ROW,COL MAX. CHANGE LAYER,ROW,COL MAX. CHANGE LAYER,ROW,COL MAX. CHANGE LAYER,ROW,COL MAX. CHANGE LAYER,ROW,COL
 ------------------------------------------------------------------------------------------------------------------------------------
   0.1588     (  1,131,182)  0.4589E-01 (  1,129,185)  0.2098E-01 (  1,130,185)  0.5523E-02 (  1,129,185)  0.1629E-02 (  1,128,183)
   0.5013E-03 (  1,129,183)  0.1438E-03 (  1,130,184)  0.3880E-04 (  1,129,183)


     1 CALLS TO GCG PACKAGE FOR TRANSPORT TIME STEP   1 IN FLOW TIME STEP   7 STRESS PERIOD   2
     8 TOTAL ITERATIONS
  MAXIMUM CONCENTRATION CHANGES FOR EACH ITERATION:
  MAX. CHANGE LAYER,ROW,COL MAX. CHANGE LAYER,ROW,COL MAX. CHANGE LAYER,ROW,COL MAX. CHANGE LAYER,ROW,COL MAX. CHANGE LAYER,ROW,COL
 ------------------------------------------------------------------------------------------------------------------------------------
   0.1591     (  1,131,182)  0.4603E-01 (  1,129,185)  0.2106E-01 (  1,130,185)  0.5524E-02 (  1,129,185)  0.1626E-02 (  1,128,183)
   0.5051E-03 (  1,129,183)  0.1392E-03 (  1,130,184)  0.3928E-04 (  1,129,183)


     1 CALLS TO GCG PACKAGE FOR TRANSPORT TIME STEP   1 IN FLOW TIME STEP   7 STRESS PERIOD   2
     8 TOTAL ITERATIONS
  MAXIMUM CONCENTRATION CHANGES FOR EACH ITERATION:
  MAX. CHANGE LAYER,ROW,COL MAX. CHANGE LAYER,ROW,COL MAX. CHANGE LAYER,ROW,COL MAX. CHANGE LAYER,ROW,COL MAX. CHANGE LAYER,ROW,COL
 ------------------------------------------------------------------------------------------------------------------------------------
   0.1724     (  1, 77, 92)  0.5756E-01 (  1, 79, 91)  0.1638E-01 (  1, 79, 91)  0.3367E-02 (  1, 40, 99)  0.1394E-02 (  1, 79, 91)
   0.3864E-03 (  1, 41,114)  0.1305E-03 (  1, 40,114)  0.4402E-04 (  1, 40,115)


     1 CALLS TO GCG PACKAGE FOR TRANSPORT TIME STEP   1 IN FLOW TIME STEP   7 STRESS PERIOD   2
     8 TOTAL ITERATIONS
  MAXIMUM CONCENTRATION CHANGES FOR EACH ITERATION:
  MAX. CHANGE LAYER,ROW,COL MAX. CHANGE LAYER,ROW,COL MAX. CHANGE LAYER,ROW,COL MAX. CHANGE LAYER,ROW,COL MAX. CHANGE LAYER,ROW,COL
 ------------------------------------------------------------------------------------------------------------------------------------
   0.1528     (  1,131,182)  0.4394E-01 (  1,129,185)  0.2104E-01 (  1,130,185)  0.5433E-02 (  1,129,185)  0.1520E-02 (  1,128,185)
   0.4803E-03 (  1,126,179)  0.1310E-03 (  1,130,184)  0.3153E-04 (  1,126,181)



 >>>>>>>>>>>>>>>>>>>>>>>>>>>>>>>>>>>>>>>>>>>>>>>>>>>>>>>FOR COMPONENT NO. 01<<<<<<<<<<<<<<<<<<<<<<<<<<<<<<<<<<<<<<<<<<<<<<<<<<<<<<<


                                            -------------------------------------------
                                                      TRANSPORT STEP NO.    1
                                            -------------------------------------------

 TOTAL ELAPSED TIME SINCE BEGINNING OF SIMULATION =   730.0000       d
 .....................................................................

                     CUMMULATIVE MASS BUDGETS AT END OF TRANSPORT STEP    1, TIME STEP    7, STRESS PERIOD    2
                     ------------------------------------------------------------------------------------------

                                                             IN                           OUT
                                                      ----------------             ----------------
                               CONSTANT CONCENTRATION:    0.000000                    0.000000    
                                        CONSTANT HEAD:    0.000000                  -0.3941290E-13
                                             RECHARGE:    8718840.                    0.000000    
                                   EVAPOTRANSPIRATION:    0.000000                    56.39202    
                                MASS STORAGE (SOLUTE):    7927.229                   -8726650.    
                            ---------------------------------------------------------------------------
                                              [TOTAL]:    8726767.       mg          -8726594.       mg

                                                          NET (IN - OUT):    173.0000    
                                                   DISCREPANCY (PERCENT):   0.1982426E-02



 >>>>>>>>>>>>>>>>>>>>>>>>>>>>>>>>>>>>>>>>>>>>>>>>>>>>>>>FOR COMPONENT NO. 02<<<<<<<<<<<<<<<<<<<<<<<<<<<<<<<<<<<<<<<<<<<<<<<<<<<<<<<


                                            -------------------------------------------
                                                      TRANSPORT STEP NO.    1
                                            -------------------------------------------

 TOTAL ELAPSED TIME SINCE BEGINNING OF SIMULATION =   730.0000       d
 .....................................................................

                     CUMMULATIVE MASS BUDGETS AT END OF TRANSPORT STEP    1, TIME STEP    7, STRESS PERIOD    2
                     ------------------------------------------------------------------------------------------

                                                             IN                           OUT
                                                      ----------------             ----------------
                               CONSTANT CONCENTRATION:    0.000000                    0.000000    
                                        CONSTANT HEAD:    0.000000                  -0.3941759E-14
                                             RECHARGE:    849743.5                    0.000000    
                                   EVAPOTRANSPIRATION:    0.000000                    5.466144    
                                MASS STORAGE (SOLUTE):    778.5432                   -850514.6    
                            ---------------------------------------------------------------------------
                                              [TOTAL]:    850522.1       mg          -850509.1       mg

                                                          NET (IN - OUT):    12.93750    
                                                   DISCREPANCY (PERCENT):   0.1521136E-02



 >>>>>>>>>>>>>>>>>>>>>>>>>>>>>>>>>>>>>>>>>>>>>>>>>>>>>>>FOR COMPONENT NO. 03<<<<<<<<<<<<<<<<<<<<<<<<<<<<<<<<<<<<<<<<<<<<<<<<<<<<<<<


                                            -------------------------------------------
                                                      TRANSPORT STEP NO.    1
                                            -------------------------------------------

 TOTAL ELAPSED TIME SINCE BEGINNING OF SIMULATION =   730.0000       d
 .....................................................................

                     CUMMULATIVE MASS BUDGETS AT END OF TRANSPORT STEP    1, TIME STEP    7, STRESS PERIOD    2
                     ------------------------------------------------------------------------------------------

                                                             IN                           OUT
                                                      ----------------             ----------------
                               CONSTANT CONCENTRATION:    0.000000                    0.000000    
                                        CONSTANT HEAD:    0.000000                  -0.1991618E-15
                                             RECHARGE:    31113.07                    0.000000    
                                   EVAPOTRANSPIRATION:    0.000000                   0.1557065    
                                MASS STORAGE (SOLUTE):    28.47199                   -31141.15    
                            ---------------------------------------------------------------------------
                                              [TOTAL]:    31141.54       mg          -31140.99       mg

                                                          NET (IN - OUT):   0.5507812    
                                                   DISCREPANCY (PERCENT):   0.1768654E-02



 >>>>>>>>>>>>>>>>>>>>>>>>>>>>>>>>>>>>>>>>>>>>>>>>>>>>>>>FOR COMPONENT NO. 04<<<<<<<<<<<<<<<<<<<<<<<<<<<<<<<<<<<<<<<<<<<<<<<<<<<<<<<


                                            -------------------------------------------
                                                      TRANSPORT STEP NO.    1
                                            -------------------------------------------

 TOTAL ELAPSED TIME SINCE BEGINNING OF SIMULATION =   730.0000       d
 .....................................................................

                     CUMMULATIVE MASS BUDGETS AT END OF TRANSPORT STEP    1, TIME STEP    7, STRESS PERIOD    2
                     ------------------------------------------------------------------------------------------

                                                             IN                           OUT
                                                      ----------------             ----------------
                               CONSTANT CONCENTRATION:    0.000000                    0.000000    
                                        CONSTANT HEAD:    0.000000                    0.000000    
                                             RECHARGE:    5683.880                    0.000000    
                                   EVAPOTRANSPIRATION:    0.000000                   0.6295075E-01
                                MASS STORAGE (SOLUTE):    5.690637                   -5689.668    
                            ---------------------------------------------------------------------------
                                              [TOTAL]:    5689.571       mg          -5689.605       mg

                                                          NET (IN - OUT):  -0.3466797E-01
                                                   DISCREPANCY (PERCENT):  -0.6093230E-03


                                          ================================================
                                                         TIME STEP NO.  008
                                          ================================================

 FROM TIME =   730.00     TO    820.00    



     1 CALLS TO GCG PACKAGE FOR TRANSPORT TIME STEP   1 IN FLOW TIME STEP   8 STRESS PERIOD   2
     8 TOTAL ITERATIONS
  MAXIMUM CONCENTRATION CHANGES FOR EACH ITERATION:
  MAX. CHANGE LAYER,ROW,COL MAX. CHANGE LAYER,ROW,COL MAX. CHANGE LAYER,ROW,COL MAX. CHANGE LAYER,ROW,COL MAX. CHANGE LAYER,ROW,COL
 ------------------------------------------------------------------------------------------------------------------------------------
   0.1447     (  1,131,182)  0.4298E-01 (  1,129,185)  0.1921E-01 (  1,130,185)  0.5163E-02 (  1,129,185)  0.1528E-02 (  1,128,183)
   0.4659E-03 (  1,129,183)  0.1383E-03 (  1,130,184)  0.3713E-04 (  1,129,183)


     1 CALLS TO GCG PACKAGE FOR TRANSPORT TIME STEP   1 IN FLOW TIME STEP   8 STRESS PERIOD   2
     8 TOTAL ITERATIONS
  MAXIMUM CONCENTRATION CHANGES FOR EACH ITERATION:
  MAX. CHANGE LAYER,ROW,COL MAX. CHANGE LAYER,ROW,COL MAX. CHANGE LAYER,ROW,COL MAX. CHANGE LAYER,ROW,COL MAX. CHANGE LAYER,ROW,COL
 ------------------------------------------------------------------------------------------------------------------------------------
   0.1450     (  1,131,182)  0.4313E-01 (  1,129,185)  0.1928E-01 (  1,130,185)  0.5158E-02 (  1,129,185)  0.1527E-02 (  1,128,183)
   0.4697E-03 (  1,129,183)  0.1342E-03 (  1,130,184)  0.3761E-04 (  1,129,183)


     1 CALLS TO GCG PACKAGE FOR TRANSPORT TIME STEP   1 IN FLOW TIME STEP   8 STRESS PERIOD   2
     8 TOTAL ITERATIONS
  MAXIMUM CONCENTRATION CHANGES FOR EACH ITERATION:
  MAX. CHANGE LAYER,ROW,COL MAX. CHANGE LAYER,ROW,COL MAX. CHANGE LAYER,ROW,COL MAX. CHANGE LAYER,ROW,COL MAX. CHANGE LAYER,ROW,COL
 ------------------------------------------------------------------------------------------------------------------------------------
   0.1510     (  1, 77, 92)  0.4975E-01 (  1, 79, 91)  0.1400E-01 (  1, 79, 91)  0.2968E-02 (  1, 40, 99)  0.1229E-02 (  1, 79, 91)
   0.3468E-03 (  1, 41,114)  0.1150E-03 (  1, 40,114)  0.3934E-04 (  1, 40,115)


     1 CALLS TO GCG PACKAGE FOR TRANSPORT TIME STEP   1 IN FLOW TIME STEP   8 STRESS PERIOD   2
     8 TOTAL ITERATIONS
  MAXIMUM CONCENTRATION CHANGES FOR EACH ITERATION:
  MAX. CHANGE LAYER,ROW,COL MAX. CHANGE LAYER,ROW,COL MAX. CHANGE LAYER,ROW,COL MAX. CHANGE LAYER,ROW,COL MAX. CHANGE LAYER,ROW,COL
 ------------------------------------------------------------------------------------------------------------------------------------
   0.1387     (  1,131,182)  0.4082E-01 (  1,129,185)  0.1925E-01 (  1,130,185)  0.5154E-02 (  1,129,185)  0.1411E-02 (  1,128,185)
   0.4480E-03 (  1,126,179)  0.1245E-03 (  1,130,184)  0.2974E-04 (  1,129,183)



 >>>>>>>>>>>>>>>>>>>>>>>>>>>>>>>>>>>>>>>>>>>>>>>>>>>>>>>FOR COMPONENT NO. 01<<<<<<<<<<<<<<<<<<<<<<<<<<<<<<<<<<<<<<<<<<<<<<<<<<<<<<<


                                            -------------------------------------------
                                                      TRANSPORT STEP NO.    1
                                            -------------------------------------------

 TOTAL ELAPSED TIME SINCE BEGINNING OF SIMULATION =   820.0000       d
 .....................................................................

                     CUMMULATIVE MASS BUDGETS AT END OF TRANSPORT STEP    1, TIME STEP    8, STRESS PERIOD    2
                     ------------------------------------------------------------------------------------------

                                                             IN                           OUT
                                                      ----------------             ----------------
                               CONSTANT CONCENTRATION:    0.000000                    0.000000    
                                        CONSTANT HEAD:    0.000000                  -0.1621851E-12
                                             RECHARGE:    9793766.                    0.000000    
                                   EVAPOTRANSPIRATION:    0.000000                    75.32380    
                                MASS STORAGE (SOLUTE):    9394.406                   -9803014.    
                            ---------------------------------------------------------------------------
                                              [TOTAL]:    9803160.       mg          -9802939.       mg

                                                          NET (IN - OUT):    221.0000    
                                                   DISCREPANCY (PERCENT):   0.2254400E-02



 >>>>>>>>>>>>>>>>>>>>>>>>>>>>>>>>>>>>>>>>>>>>>>>>>>>>>>>FOR COMPONENT NO. 02<<<<<<<<<<<<<<<<<<<<<<<<<<<<<<<<<<<<<<<<<<<<<<<<<<<<<<<


                                            -------------------------------------------
                                                      TRANSPORT STEP NO.    1
                                            -------------------------------------------

 TOTAL ELAPSED TIME SINCE BEGINNING OF SIMULATION =   820.0000       d
 .....................................................................

                     CUMMULATIVE MASS BUDGETS AT END OF TRANSPORT STEP    1, TIME STEP    8, STRESS PERIOD    2
                     ------------------------------------------------------------------------------------------

                                                             IN                           OUT
                                                      ----------------             ----------------
                               CONSTANT CONCENTRATION:    0.000000                    0.000000    
                                        CONSTANT HEAD:    0.000000                  -0.1621954E-13
                                             RECHARGE:    954506.4                    0.000000    
                                   EVAPOTRANSPIRATION:    0.000000                    7.289629    
                                MASS STORAGE (SOLUTE):    922.6149                   -955422.6    
                            ---------------------------------------------------------------------------
                                              [TOTAL]:    955429.1       mg          -955415.2       mg

                                                          NET (IN - OUT):    13.81250    
                                                   DISCREPANCY (PERCENT):   0.1445696E-02



 >>>>>>>>>>>>>>>>>>>>>>>>>>>>>>>>>>>>>>>>>>>>>>>>>>>>>>>FOR COMPONENT NO. 03<<<<<<<<<<<<<<<<<<<<<<<<<<<<<<<<<<<<<<<<<<<<<<<<<<<<<<<


                                            -------------------------------------------
                                                      TRANSPORT STEP NO.    1
                                            -------------------------------------------

 TOTAL ELAPSED TIME SINCE BEGINNING OF SIMULATION =   820.0000       d
 .....................................................................

                     CUMMULATIVE MASS BUDGETS AT END OF TRANSPORT STEP    1, TIME STEP    8, STRESS PERIOD    2
                     ------------------------------------------------------------------------------------------

                                                             IN                           OUT
                                                      ----------------             ----------------
                               CONSTANT CONCENTRATION:    0.000000                    0.000000    
                                        CONSTANT HEAD:    0.000000                  -0.8134653E-15
                                             RECHARGE:    34948.93                    0.000000    
                                   EVAPOTRANSPIRATION:    0.000000                   0.2055431    
                                MASS STORAGE (SOLUTE):    34.25949                   -34982.82    
                            ---------------------------------------------------------------------------
                                              [TOTAL]:    34983.19       mg          -34982.62       mg

                                                          NET (IN - OUT):   0.5703125    
                                                   DISCREPANCY (PERCENT):   0.1630261E-02



 >>>>>>>>>>>>>>>>>>>>>>>>>>>>>>>>>>>>>>>>>>>>>>>>>>>>>>>FOR COMPONENT NO. 04<<<<<<<<<<<<<<<<<<<<<<<<<<<<<<<<<<<<<<<<<<<<<<<<<<<<<<<


                                            -------------------------------------------
                                                      TRANSPORT STEP NO.    1
                                            -------------------------------------------

 TOTAL ELAPSED TIME SINCE BEGINNING OF SIMULATION =   820.0000       d
 .....................................................................

                     CUMMULATIVE MASS BUDGETS AT END OF TRANSPORT STEP    1, TIME STEP    8, STRESS PERIOD    2
                     ------------------------------------------------------------------------------------------

                                                             IN                           OUT
                                                      ----------------             ----------------
                               CONSTANT CONCENTRATION:    0.000000                    0.000000    
                                        CONSTANT HEAD:    0.000000                    0.000000    
                                             RECHARGE:    6384.633                    0.000000    
                                   EVAPOTRANSPIRATION:    0.000000                   0.8440027E-01
                                MASS STORAGE (SOLUTE):    6.406599                   -6391.160    
                            ---------------------------------------------------------------------------
                                              [TOTAL]:    6391.040       mg          -6391.076       mg

                                                          NET (IN - OUT):  -0.3613281E-01
                                                   DISCREPANCY (PERCENT):  -0.5653651E-03


                                          ================================================
                                                         TIME STEP NO.  009
                                          ================================================

 FROM TIME =   820.00     TO    910.00    



     1 CALLS TO GCG PACKAGE FOR TRANSPORT TIME STEP   1 IN FLOW TIME STEP   9 STRESS PERIOD   2
     8 TOTAL ITERATIONS
  MAXIMUM CONCENTRATION CHANGES FOR EACH ITERATION:
  MAX. CHANGE LAYER,ROW,COL MAX. CHANGE LAYER,ROW,COL MAX. CHANGE LAYER,ROW,COL MAX. CHANGE LAYER,ROW,COL MAX. CHANGE LAYER,ROW,COL
 ------------------------------------------------------------------------------------------------------------------------------------
   0.1342     (  1,131,182)  0.4072E-01 (  1,129,185)  0.1779E-01 (  1,130,185)  0.4923E-02 (  1,129,185)  0.1447E-02 (  1,128,183)
   0.4389E-03 (  1,129,183)  0.1336E-03 (  1,130,184)  0.3612E-04 (  1,129,183)


     1 CALLS TO GCG PACKAGE FOR TRANSPORT TIME STEP   1 IN FLOW TIME STEP   9 STRESS PERIOD   2
     8 TOTAL ITERATIONS
  MAXIMUM CONCENTRATION CHANGES FOR EACH ITERATION:
  MAX. CHANGE LAYER,ROW,COL MAX. CHANGE LAYER,ROW,COL MAX. CHANGE LAYER,ROW,COL MAX. CHANGE LAYER,ROW,COL MAX. CHANGE LAYER,ROW,COL
 ------------------------------------------------------------------------------------------------------------------------------------
   0.1346     (  1,131,182)  0.4089E-01 (  1,129,185)  0.1786E-01 (  1,130,185)  0.4914E-02 (  1,129,185)  0.1447E-02 (  1,128,183)
   0.4426E-03 (  1,129,183)  0.1298E-03 (  1,130,184)  0.3654E-04 (  1,129,183)


     1 CALLS TO GCG PACKAGE FOR TRANSPORT TIME STEP   1 IN FLOW TIME STEP   9 STRESS PERIOD   2
     8 TOTAL ITERATIONS
  MAXIMUM CONCENTRATION CHANGES FOR EACH ITERATION:
  MAX. CHANGE LAYER,ROW,COL MAX. CHANGE LAYER,ROW,COL MAX. CHANGE LAYER,ROW,COL MAX. CHANGE LAYER,ROW,COL MAX. CHANGE LAYER,ROW,COL
 ------------------------------------------------------------------------------------------------------------------------------------
   0.1342     (  1, 77, 92)  0.4379E-01 (  1, 79, 91)  0.1216E-01 (  1, 79, 91)  0.2665E-02 (  1, 40, 99)  0.1093E-02 (  1, 79, 91)
   0.3157E-03 (  1, 41,114)  0.1030E-03 (  1, 40,114)  0.3579E-04 (  1, 40,115)


     1 CALLS TO GCG PACKAGE FOR TRANSPORT TIME STEP   1 IN FLOW TIME STEP   9 STRESS PERIOD   2
     8 TOTAL ITERATIONS
  MAXIMUM CONCENTRATION CHANGES FOR EACH ITERATION:
  MAX. CHANGE LAYER,ROW,COL MAX. CHANGE LAYER,ROW,COL MAX. CHANGE LAYER,ROW,COL MAX. CHANGE LAYER,ROW,COL MAX. CHANGE LAYER,ROW,COL
 ------------------------------------------------------------------------------------------------------------------------------------
   0.1282     (  1,131,182)  0.3838E-01 (  1,129,185)  0.1782E-01 (  1,130,185)  0.4979E-02 (  1,129,185)  0.1327E-02 (  1,128,185)
   0.4250E-03 (  1,126,179)  0.1190E-03 (  1,130,184)  0.2897E-04 (  1,129,183)



 >>>>>>>>>>>>>>>>>>>>>>>>>>>>>>>>>>>>>>>>>>>>>>>>>>>>>>>FOR COMPONENT NO. 01<<<<<<<<<<<<<<<<<<<<<<<<<<<<<<<<<<<<<<<<<<<<<<<<<<<<<<<


                                            -------------------------------------------
                                                      TRANSPORT STEP NO.    1
                                            -------------------------------------------

 TOTAL ELAPSED TIME SINCE BEGINNING OF SIMULATION =   910.0000       d
 .....................................................................

                     CUMMULATIVE MASS BUDGETS AT END OF TRANSPORT STEP    1, TIME STEP    9, STRESS PERIOD    2
                     ------------------------------------------------------------------------------------------

                                                             IN                           OUT
                                                      ----------------             ----------------
                               CONSTANT CONCENTRATION:    0.000000                    0.000000    
                                        CONSTANT HEAD:    0.000000                  -0.5770607E-12
                                             RECHARGE:   0.1086869E+08                0.000000    
                                   EVAPOTRANSPIRATION:    0.000000                    97.84007    
                                MASS STORAGE (SOLUTE):    10924.19                  -0.1087945E+08
                            ---------------------------------------------------------------------------
                                              [TOTAL]:   0.1087962E+08   mg         -0.1087936E+08   mg

                                                          NET (IN - OUT):    260.0000    
                                                   DISCREPANCY (PERCENT):   0.2389819E-02



 >>>>>>>>>>>>>>>>>>>>>>>>>>>>>>>>>>>>>>>>>>>>>>>>>>>>>>>FOR COMPONENT NO. 02<<<<<<<<<<<<<<<<<<<<<<<<<<<<<<<<<<<<<<<<<<<<<<<<<<<<<<<


                                            -------------------------------------------
                                                      TRANSPORT STEP NO.    1
                                            -------------------------------------------

 TOTAL ELAPSED TIME SINCE BEGINNING OF SIMULATION =   910.0000       d
 .....................................................................

                     CUMMULATIVE MASS BUDGETS AT END OF TRANSPORT STEP    1, TIME STEP    9, STRESS PERIOD    2
                     ------------------------------------------------------------------------------------------

                                                             IN                           OUT
                                                      ----------------             ----------------
                               CONSTANT CONCENTRATION:    0.000000                    0.000000    
                                        CONSTANT HEAD:    0.000000                  -0.5770772E-13
                                             RECHARGE:    1059269.                    0.000000    
                                   EVAPOTRANSPIRATION:    0.000000                    9.455273    
                                MASS STORAGE (SOLUTE):    1072.664                   -1060337.    
                            ---------------------------------------------------------------------------
                                              [TOTAL]:    1060342.       mg          -1060328.       mg

                                                          NET (IN - OUT):    14.12500    
                                                   DISCREPANCY (PERCENT):   0.1332126E-02



 >>>>>>>>>>>>>>>>>>>>>>>>>>>>>>>>>>>>>>>>>>>>>>>>>>>>>>>FOR COMPONENT NO. 03<<<<<<<<<<<<<<<<<<<<<<<<<<<<<<<<<<<<<<<<<<<<<<<<<<<<<<<


                                            -------------------------------------------
                                                      TRANSPORT STEP NO.    1
                                            -------------------------------------------

 TOTAL ELAPSED TIME SINCE BEGINNING OF SIMULATION =   910.0000       d
 .....................................................................

                     CUMMULATIVE MASS BUDGETS AT END OF TRANSPORT STEP    1, TIME STEP    9, STRESS PERIOD    2
                     ------------------------------------------------------------------------------------------

                                                             IN                           OUT
                                                      ----------------             ----------------
                               CONSTANT CONCENTRATION:    0.000000                    0.000000    
                                        CONSTANT HEAD:    0.000000                  -0.2883983E-14
                                             RECHARGE:    38784.79                    0.000000    
                                   EVAPOTRANSPIRATION:    0.000000                   0.2623430    
                                MASS STORAGE (SOLUTE):    40.26649                   -38824.73    
                            ---------------------------------------------------------------------------
                                              [TOTAL]:    38825.05       mg          -38824.47       mg

                                                          NET (IN - OUT):   0.5859375    
                                                   DISCREPANCY (PERCENT):   0.1509185E-02



 >>>>>>>>>>>>>>>>>>>>>>>>>>>>>>>>>>>>>>>>>>>>>>>>>>>>>>>FOR COMPONENT NO. 04<<<<<<<<<<<<<<<<<<<<<<<<<<<<<<<<<<<<<<<<<<<<<<<<<<<<<<<


                                            -------------------------------------------
                                                      TRANSPORT STEP NO.    1
                                            -------------------------------------------

 TOTAL ELAPSED TIME SINCE BEGINNING OF SIMULATION =   910.0000       d
 .....................................................................

                     CUMMULATIVE MASS BUDGETS AT END OF TRANSPORT STEP    1, TIME STEP    9, STRESS PERIOD    2
                     ------------------------------------------------------------------------------------------

                                                             IN                           OUT
                                                      ----------------             ----------------
                               CONSTANT CONCENTRATION:    0.000000                    0.000000    
                                        CONSTANT HEAD:    0.000000                    0.000000    
                                             RECHARGE:    7085.385                    0.000000    
                                   EVAPOTRANSPIRATION:    0.000000                   0.1111841    
                                MASS STORAGE (SOLUTE):    7.152770                   -7092.688    
                            ---------------------------------------------------------------------------
                                              [TOTAL]:    7092.538       mg          -7092.577       mg

                                                          NET (IN - OUT):  -0.3857422E-01
                                                   DISCREPANCY (PERCENT):  -0.5438689E-03


                                          ================================================
                                                         TIME STEP NO.  010
                                          ================================================

 FROM TIME =   910.00     TO    1000.0    



     1 CALLS TO GCG PACKAGE FOR TRANSPORT TIME STEP   1 IN FLOW TIME STEP  10 STRESS PERIOD   2
     8 TOTAL ITERATIONS
  MAXIMUM CONCENTRATION CHANGES FOR EACH ITERATION:
  MAX. CHANGE LAYER,ROW,COL MAX. CHANGE LAYER,ROW,COL MAX. CHANGE LAYER,ROW,COL MAX. CHANGE LAYER,ROW,COL MAX. CHANGE LAYER,ROW,COL
 ------------------------------------------------------------------------------------------------------------------------------------
   0.1262     (  1,131,182)  0.3896E-01 (  1,129,185)  0.1665E-01 (  1,130,185)  0.4758E-02 (  1,129,185)  0.1382E-02 (  1,128,183)
   0.4179E-03 (  1,129,183)  0.1298E-03 (  1,130,184)  0.3535E-04 (  1,129,183)


     1 CALLS TO GCG PACKAGE FOR TRANSPORT TIME STEP   1 IN FLOW TIME STEP  10 STRESS PERIOD   2
     8 TOTAL ITERATIONS
  MAXIMUM CONCENTRATION CHANGES FOR EACH ITERATION:
  MAX. CHANGE LAYER,ROW,COL MAX. CHANGE LAYER,ROW,COL MAX. CHANGE LAYER,ROW,COL MAX. CHANGE LAYER,ROW,COL MAX. CHANGE LAYER,ROW,COL
 ------------------------------------------------------------------------------------------------------------------------------------
   0.1266     (  1,131,182)  0.3913E-01 (  1,129,185)  0.1672E-01 (  1,130,185)  0.4746E-02 (  1,129,185)  0.1382E-02 (  1,128,183)
   0.4216E-03 (  1,129,183)  0.1262E-03 (  1,130,184)  0.3582E-04 (  1,129,183)


     1 CALLS TO GCG PACKAGE FOR TRANSPORT TIME STEP   1 IN FLOW TIME STEP  10 STRESS PERIOD   2
     7 TOTAL ITERATIONS
  MAXIMUM CONCENTRATION CHANGES FOR EACH ITERATION:
  MAX. CHANGE LAYER,ROW,COL MAX. CHANGE LAYER,ROW,COL MAX. CHANGE LAYER,ROW,COL MAX. CHANGE LAYER,ROW,COL MAX. CHANGE LAYER,ROW,COL
 ------------------------------------------------------------------------------------------------------------------------------------
   0.1208     (  1, 77, 92)  0.3910E-01 (  1, 79, 91)  0.1070E-01 (  1, 79, 91)  0.2427E-02 (  1, 40, 99)  0.9806E-03 (  1, 79, 91)
   0.2906E-03 (  1, 41,114)  0.9358E-04 (  1, 40,114)


     1 CALLS TO GCG PACKAGE FOR TRANSPORT TIME STEP   1 IN FLOW TIME STEP  10 STRESS PERIOD   2
     8 TOTAL ITERATIONS
  MAXIMUM CONCENTRATION CHANGES FOR EACH ITERATION:
  MAX. CHANGE LAYER,ROW,COL MAX. CHANGE LAYER,ROW,COL MAX. CHANGE LAYER,ROW,COL MAX. CHANGE LAYER,ROW,COL MAX. CHANGE LAYER,ROW,COL
 ------------------------------------------------------------------------------------------------------------------------------------
   0.1202     (  1,131,182)  0.3646E-01 (  1,129,185)  0.1669E-01 (  1,130,185)  0.4868E-02 (  1,129,185)  0.1262E-02 (  1,128,185)
   0.4078E-03 (  1,126,179)  0.1158E-03 (  1,127,180)  0.2843E-04 (  1,129,183)



 >>>>>>>>>>>>>>>>>>>>>>>>>>>>>>>>>>>>>>>>>>>>>>>>>>>>>>>FOR COMPONENT NO. 01<<<<<<<<<<<<<<<<<<<<<<<<<<<<<<<<<<<<<<<<<<<<<<<<<<<<<<<


                                            -------------------------------------------
                                                      TRANSPORT STEP NO.    1
                                            -------------------------------------------

 TOTAL ELAPSED TIME SINCE BEGINNING OF SIMULATION =   1000.000       d
 .....................................................................

                     CUMMULATIVE MASS BUDGETS AT END OF TRANSPORT STEP    1, TIME STEP   10, STRESS PERIOD    2
                     ------------------------------------------------------------------------------------------

                                                             IN                           OUT
                                                      ----------------             ----------------
                               CONSTANT CONCENTRATION:    0.000000                    0.000000    
                                        CONSTANT HEAD:    0.000000                  -0.1826288E-11
                                             RECHARGE:   0.1194362E+08                0.000000    
                                   EVAPOTRANSPIRATION:    0.000000                    123.8811    
                                MASS STORAGE (SOLUTE):    12492.44                  -0.1195595E+08
                            ---------------------------------------------------------------------------
                                              [TOTAL]:   0.1195611E+08   mg         -0.1195582E+08   mg

                                                          NET (IN - OUT):    285.0000    
                                                   DISCREPANCY (PERCENT):   0.2383747E-02



 >>>>>>>>>>>>>>>>>>>>>>>>>>>>>>>>>>>>>>>>>>>>>>>>>>>>>>>FOR COMPONENT NO. 02<<<<<<<<<<<<<<<<<<<<<<<<<<<<<<<<<<<<<<<<<<<<<<<<<<<<<<<


                                            -------------------------------------------
                                                      TRANSPORT STEP NO.    1
                                            -------------------------------------------

 TOTAL ELAPSED TIME SINCE BEGINNING OF SIMULATION =   1000.000       d
 .....................................................................

                     CUMMULATIVE MASS BUDGETS AT END OF TRANSPORT STEP    1, TIME STEP   10, STRESS PERIOD    2
                     ------------------------------------------------------------------------------------------

                                                             IN                           OUT
                                                      ----------------             ----------------
                               CONSTANT CONCENTRATION:    0.000000                    0.000000    
                                        CONSTANT HEAD:    0.000000                  -0.1826298E-12
                                             RECHARGE:    1164032.                    0.000000    
                                   EVAPOTRANSPIRATION:    0.000000                    11.95663    
                                MASS STORAGE (SOLUTE):    1226.347                   -1165256.    
                            ---------------------------------------------------------------------------
                                              [TOTAL]:    1165259.       mg          -1165244.       mg

                                                          NET (IN - OUT):    14.37500    
                                                   DISCREPANCY (PERCENT):   0.1233639E-02



 >>>>>>>>>>>>>>>>>>>>>>>>>>>>>>>>>>>>>>>>>>>>>>>>>>>>>>>FOR COMPONENT NO. 03<<<<<<<<<<<<<<<<<<<<<<<<<<<<<<<<<<<<<<<<<<<<<<<<<<<<<<<


                                            -------------------------------------------
                                                      TRANSPORT STEP NO.    1
                                            -------------------------------------------

 TOTAL ELAPSED TIME SINCE BEGINNING OF SIMULATION =   1000.000       d
 .....................................................................

                     CUMMULATIVE MASS BUDGETS AT END OF TRANSPORT STEP    1, TIME STEP   10, STRESS PERIOD    2
                     ------------------------------------------------------------------------------------------

                                                             IN                           OUT
                                                      ----------------             ----------------
                               CONSTANT CONCENTRATION:    0.000000                    0.000000    
                                        CONSTANT HEAD:    0.000000                  -0.9111032E-14
                                             RECHARGE:    42620.65                    0.000000    
                                   EVAPOTRANSPIRATION:    0.000000                   0.3257409    
                                MASS STORAGE (SOLUTE):    46.42170                   -42666.79    
                            ---------------------------------------------------------------------------
                                              [TOTAL]:    42667.07       mg          -42666.46       mg

                                                          NET (IN - OUT):   0.6093750    
                                                   DISCREPANCY (PERCENT):   0.1428219E-02



 >>>>>>>>>>>>>>>>>>>>>>>>>>>>>>>>>>>>>>>>>>>>>>>>>>>>>>>FOR COMPONENT NO. 04<<<<<<<<<<<<<<<<<<<<<<<<<<<<<<<<<<<<<<<<<<<<<<<<<<<<<<<


                                            -------------------------------------------
                                                      TRANSPORT STEP NO.    1
                                            -------------------------------------------

 TOTAL ELAPSED TIME SINCE BEGINNING OF SIMULATION =   1000.000       d
 .....................................................................

                     CUMMULATIVE MASS BUDGETS AT END OF TRANSPORT STEP    1, TIME STEP   10, STRESS PERIOD    2
                     ------------------------------------------------------------------------------------------

                                                             IN                           OUT
                                                      ----------------             ----------------
                               CONSTANT CONCENTRATION:    0.000000                    0.000000    
                                        CONSTANT HEAD:    0.000000                    0.000000    
                                             RECHARGE:    7786.138                    0.000000    
                                   EVAPOTRANSPIRATION:    0.000000                   0.1432953    
                                MASS STORAGE (SOLUTE):    7.904284                   -7794.227    
                            ---------------------------------------------------------------------------
                                              [TOTAL]:    7794.042       mg          -7794.084       mg

                                                          NET (IN - OUT):  -0.4199219E-01
                                                   DISCREPANCY (PERCENT):  -0.5387714E-03


                                   ++++++++++++++++++++++++++++++++++++++++++++++++++++++++++++++
                                                       STRESS PERIOD NO.  003
                                   ++++++++++++++++++++++++++++++++++++++++++++++++++++++++++++++


 LENGTH OF CURRENT STRESS PERIOD =   9000.000    
 NUMBER OF TIME STEPS FOR CURRENT STRESS PERIOD =   10
 TIME STEP MULTIPLIER USED IN FLOW SOLUTION =   1.000000    

 ***Type of Transport Simulation is TRANSIENT

 USER-SPECIFIED TRANSPORT STEPSIZE =   0.000000       d
 MAXIMUM NUMBER OF TRANSPORT STEPS ALLOWED  IN ONE FLOW TIME STEP =      1000
 MULTIPLIER FOR SUCCESSIVE TRANSPORT STEPS  [USED IN IMPLICIT SCHEMES] =     1.000
 MAXIMUM TRANSPORT STEP SIZE  [USED IN IMPLICIT SCHEMES] =   0.000000       d

 CONCENTRATION OF RECHARGE FLUXES REUSED FROM LAST STRESS PERIOD

 CONCENTRATION OF E. T. FLUXES REUSED FROM LAST STRESS PERIOD

 NO. OF POINT SINKS/SOURCES OF SPECIFIED CONCONCENTRATIONS =    0 IN STRESS PERIOD  3


                                          ================================================
                                                         TIME STEP NO.  001
                                          ================================================

 FROM TIME =   1000.0     TO    1900.0    



     1 CALLS TO GCG PACKAGE FOR TRANSPORT TIME STEP   1 IN FLOW TIME STEP   1 STRESS PERIOD   3
    17 TOTAL ITERATIONS


     1 CALLS TO GCG PACKAGE FOR TRANSPORT TIME STEP   1 IN FLOW TIME STEP   1 STRESS PERIOD   3
    17 TOTAL ITERATIONS


     1 CALLS TO GCG PACKAGE FOR TRANSPORT TIME STEP   1 IN FLOW TIME STEP   1 STRESS PERIOD   3
    18 TOTAL ITERATIONS


     1 CALLS TO GCG PACKAGE FOR TRANSPORT TIME STEP   1 IN FLOW TIME STEP   1 STRESS PERIOD   3
    16 TOTAL ITERATIONS



 >>>>>>>>>>>>>>>>>>>>>>>>>>>>>>>>>>>>>>>>>>>>>>>>>>>>>>>FOR COMPONENT NO. 01<<<<<<<<<<<<<<<<<<<<<<<<<<<<<<<<<<<<<<<<<<<<<<<<<<<<<<<


                                            -------------------------------------------
                                                      TRANSPORT STEP NO.    1
                                            -------------------------------------------

 TOTAL ELAPSED TIME SINCE BEGINNING OF SIMULATION =   1561.539       d
 .....................................................................

                     CUMMULATIVE MASS BUDGETS AT END OF TRANSPORT STEP    1, TIME STEP    1, STRESS PERIOD    3
                     ------------------------------------------------------------------------------------------

                                                             IN                           OUT
                                                      ----------------             ----------------
                               CONSTANT CONCENTRATION:    0.000000                    0.000000    
                                        CONSTANT HEAD:    0.000000                  -0.6784087E-07
                                             RECHARGE:   0.1865042E+08                0.000000    
                                   EVAPOTRANSPIRATION:    0.000000                    131.7981    
                                MASS STORAGE (SOLUTE):    14415.60                  -0.1866328E+08
                            ---------------------------------------------------------------------------
                                              [TOTAL]:   0.1866483E+08   mg         -0.1866315E+08   mg

                                                          NET (IN - OUT):    1684.000    
                                                   DISCREPANCY (PERCENT):   0.9022722E-02



 >>>>>>>>>>>>>>>>>>>>>>>>>>>>>>>>>>>>>>>>>>>>>>>>>>>>>>>FOR COMPONENT NO. 02<<<<<<<<<<<<<<<<<<<<<<<<<<<<<<<<<<<<<<<<<<<<<<<<<<<<<<<


                                            -------------------------------------------
                                                      TRANSPORT STEP NO.    1
                                            -------------------------------------------

 TOTAL ELAPSED TIME SINCE BEGINNING OF SIMULATION =   1561.539       d
 .....................................................................

                     CUMMULATIVE MASS BUDGETS AT END OF TRANSPORT STEP    1, TIME STEP    1, STRESS PERIOD    3
                     ------------------------------------------------------------------------------------------

                                                             IN                           OUT
                                                      ----------------             ----------------
                               CONSTANT CONCENTRATION:    0.000000                    0.000000    
                                        CONSTANT HEAD:    0.000000                  -0.6807927E-08
                                             RECHARGE:    1817681.                    0.000000    
                                   EVAPOTRANSPIRATION:    0.000000                    12.74919    
                                MASS STORAGE (SOLUTE):    1418.669                   -1818962.    
                            ---------------------------------------------------------------------------
                                              [TOTAL]:    1819099.       mg          -1818949.       mg

                                                          NET (IN - OUT):    150.3750    
                                                   DISCREPANCY (PERCENT):   0.8266794E-02



 >>>>>>>>>>>>>>>>>>>>>>>>>>>>>>>>>>>>>>>>>>>>>>>>>>>>>>>FOR COMPONENT NO. 03<<<<<<<<<<<<<<<<<<<<<<<<<<<<<<<<<<<<<<<<<<<<<<<<<<<<<<<


                                            -------------------------------------------
                                                      TRANSPORT STEP NO.    1
                                            -------------------------------------------

 TOTAL ELAPSED TIME SINCE BEGINNING OF SIMULATION =   1561.539       d
 .....................................................................

                     CUMMULATIVE MASS BUDGETS AT END OF TRANSPORT STEP    1, TIME STEP    1, STRESS PERIOD    3
                     ------------------------------------------------------------------------------------------

                                                             IN                           OUT
                                                      ----------------             ----------------
                               CONSTANT CONCENTRATION:    0.000000                    0.000000    
                                        CONSTANT HEAD:    0.000000                  -0.4946235E-09
                                             RECHARGE:    66553.79                    0.000000    
                                   EVAPOTRANSPIRATION:    0.000000                   0.3652411    
                                MASS STORAGE (SOLUTE):    56.03149                   -66605.66    
                            ---------------------------------------------------------------------------
                                              [TOTAL]:    66609.82       mg          -66605.30       mg

                                                          NET (IN - OUT):    4.523438    
                                                   DISCREPANCY (PERCENT):   0.6791177E-02



 >>>>>>>>>>>>>>>>>>>>>>>>>>>>>>>>>>>>>>>>>>>>>>>>>>>>>>>FOR COMPONENT NO. 04<<<<<<<<<<<<<<<<<<<<<<<<<<<<<<<<<<<<<<<<<<<<<<<<<<<<<<<


                                            -------------------------------------------
                                                      TRANSPORT STEP NO.    1
                                            -------------------------------------------

 TOTAL ELAPSED TIME SINCE BEGINNING OF SIMULATION =   1561.539       d
 .....................................................................

                     CUMMULATIVE MASS BUDGETS AT END OF TRANSPORT STEP    1, TIME STEP    1, STRESS PERIOD    3
                     ------------------------------------------------------------------------------------------

                                                             IN                           OUT
                                                      ----------------             ----------------
                               CONSTANT CONCENTRATION:    0.000000                    0.000000    
                                        CONSTANT HEAD:    0.000000                    0.000000    
                                             RECHARGE:    12158.35                    0.000000    
                                   EVAPOTRANSPIRATION:    0.000000                   0.1434114    
                                MASS STORAGE (SOLUTE):    7.906524                   -12166.21    
                            ---------------------------------------------------------------------------
                                              [TOTAL]:    12166.26       mg          -12166.07       mg

                                                          NET (IN - OUT):   0.1914062    
                                                   DISCREPANCY (PERCENT):   0.1573267E-02
     1 CALLS TO GCG PACKAGE FOR TRANSPORT TIME STEP   2 IN FLOW TIME STEP   1 STRESS PERIOD   3
    14 TOTAL ITERATIONS
  MAXIMUM CONCENTRATION CHANGES FOR EACH ITERATION:
  MAX. CHANGE LAYER,ROW,COL MAX. CHANGE LAYER,ROW,COL MAX. CHANGE LAYER,ROW,COL MAX. CHANGE LAYER,ROW,COL MAX. CHANGE LAYER,ROW,COL
 ------------------------------------------------------------------------------------------------------------------------------------
   0.2644     (  1,133,186)  0.2094     (  1,130,183)  0.9736E-01 (  1,129,180)  0.5331E-01 (  1,129,183)  0.2955E-01 (  1,128,183)
   0.1347E-01 (  1,127,183)  0.7088E-02 (  1,131,184)  0.2911E-02 (  1,126,185)  0.1713E-02 (  1,129,185)  0.8993E-03 (  1,128,185)
   0.3778E-03 (  1,128,184)  0.1935E-03 (  1,129,184)  0.1156E-03 (  1,130,184)  0.5245E-04 (  1,129,184)
     1 CALLS TO GCG PACKAGE FOR TRANSPORT TIME STEP   2 IN FLOW TIME STEP   1 STRESS PERIOD   3
    14 TOTAL ITERATIONS
  MAXIMUM CONCENTRATION CHANGES FOR EACH ITERATION:
  MAX. CHANGE LAYER,ROW,COL MAX. CHANGE LAYER,ROW,COL MAX. CHANGE LAYER,ROW,COL MAX. CHANGE LAYER,ROW,COL MAX. CHANGE LAYER,ROW,COL
 ------------------------------------------------------------------------------------------------------------------------------------
   0.2664     (  1,133,186)  0.2103     (  1,130,183)  0.9712E-01 (  1,129,180)  0.5324E-01 (  1,129,183)  0.2923E-01 (  1,128,183)
   0.1348E-01 (  1,127,183)  0.7102E-02 (  1,131,184)  0.2893E-02 (  1,126,185)  0.1743E-02 (  1,129,185)  0.9097E-03 (  1,128,185)
   0.3737E-03 (  1,128,184)  0.1929E-03 (  1,129,184)  0.1153E-03 (  1,130,184)  0.5245E-04 (  1,129,184)
     1 CALLS TO GCG PACKAGE FOR TRANSPORT TIME STEP   2 IN FLOW TIME STEP   1 STRESS PERIOD   3
    14 TOTAL ITERATIONS
  MAXIMUM CONCENTRATION CHANGES FOR EACH ITERATION:
  MAX. CHANGE LAYER,ROW,COL MAX. CHANGE LAYER,ROW,COL MAX. CHANGE LAYER,ROW,COL MAX. CHANGE LAYER,ROW,COL MAX. CHANGE LAYER,ROW,COL
 ------------------------------------------------------------------------------------------------------------------------------------
   0.3016     (  1, 79, 91)  0.1581     (  1, 79, 91)  0.6566E-01 (  1, 78, 91)  0.4328E-01 (  1, 79, 91)  0.2183E-01 (  1, 78, 91)
   0.8772E-02 (  1, 39, 89)  0.4505E-02 (  1, 79, 92)  0.2649E-02 (  1, 78, 92)  0.1103E-02 (  1, 40,114)  0.5705E-03 (  1, 40, 91)
   0.3043E-03 (  1, 39,114)  0.1651E-03 (  1, 40,116)  0.1000E-03 (  1, 40,114)  0.5528E-04 (  1, 39,116)
     1 CALLS TO GCG PACKAGE FOR TRANSPORT TIME STEP   2 IN FLOW TIME STEP   1 STRESS PERIOD   3
    13 TOTAL ITERATIONS
  MAXIMUM CONCENTRATION CHANGES FOR EACH ITERATION:
  MAX. CHANGE LAYER,ROW,COL MAX. CHANGE LAYER,ROW,COL MAX. CHANGE LAYER,ROW,COL MAX. CHANGE LAYER,ROW,COL MAX. CHANGE LAYER,ROW,COL
 ------------------------------------------------------------------------------------------------------------------------------------
   0.2451     (  1,133,186)  0.1966     (  1,130,183)  0.9709E-01 (  1,129,180)  0.5700E-01 (  1,129,183)  0.3334E-01 (  1,128,183)
   0.1350E-01 (  1,127,183)  0.6188E-02 (  1,127,185)  0.3053E-02 (  1,126,185)  0.1584E-02 (  1,128,179)  0.8675E-03 (  1,127,179)
   0.3055E-03 (  1,128,180)  0.1642E-03 (  1,130,185)  0.9418E-04 (  1,130,184)



 >>>>>>>>>>>>>>>>>>>>>>>>>>>>>>>>>>>>>>>>>>>>>>>>>>>>>>>FOR COMPONENT NO. 01<<<<<<<<<<<<<<<<<<<<<<<<<<<<<<<<<<<<<<<<<<<<<<<<<<<<<<<


                                            -------------------------------------------
                                                      TRANSPORT STEP NO.    2
                                            -------------------------------------------

 TOTAL ELAPSED TIME SINCE BEGINNING OF SIMULATION =   1900.000       d
 .....................................................................

                     CUMMULATIVE MASS BUDGETS AT END OF TRANSPORT STEP    2, TIME STEP    1, STRESS PERIOD    3
                     ------------------------------------------------------------------------------------------

                                                             IN                           OUT
                                                      ----------------             ----------------
                               CONSTANT CONCENTRATION:    0.000000                    0.000000    
                                        CONSTANT HEAD:    0.000000                  -0.2960170E-06
                                             RECHARGE:   0.2269286E+08                0.000000    
                                   EVAPOTRANSPIRATION:    0.000000                    138.2366    
                                MASS STORAGE (SOLUTE):    17101.71                  -0.2270831E+08
                            ---------------------------------------------------------------------------
                                              [TOTAL]:   0.2270997E+08   mg         -0.2270817E+08   mg

                                                          NET (IN - OUT):    1792.000    
                                                   DISCREPANCY (PERCENT):   0.7891120E-02



 >>>>>>>>>>>>>>>>>>>>>>>>>>>>>>>>>>>>>>>>>>>>>>>>>>>>>>>FOR COMPONENT NO. 02<<<<<<<<<<<<<<<<<<<<<<<<<<<<<<<<<<<<<<<<<<<<<<<<<<<<<<<


                                            -------------------------------------------
                                                      TRANSPORT STEP NO.    2
                                            -------------------------------------------

 TOTAL ELAPSED TIME SINCE BEGINNING OF SIMULATION =   1900.000       d
 .....................................................................

                     CUMMULATIVE MASS BUDGETS AT END OF TRANSPORT STEP    2, TIME STEP    1, STRESS PERIOD    3
                     ------------------------------------------------------------------------------------------

                                                             IN                           OUT
                                                      ----------------             ----------------
                               CONSTANT CONCENTRATION:    0.000000                    0.000000    
                                        CONSTANT HEAD:    0.000000                  -0.2966131E-07
                                             RECHARGE:    2211662.                    0.000000    
                                   EVAPOTRANSPIRATION:    0.000000                    13.39363    
                                MASS STORAGE (SOLUTE):    1686.261                   -2213196.    
                            ---------------------------------------------------------------------------
                                              [TOTAL]:    2213348.       mg          -2213183.       mg

                                                          NET (IN - OUT):    165.2500    
                                                   DISCREPANCY (PERCENT):   0.7466343E-02



 >>>>>>>>>>>>>>>>>>>>>>>>>>>>>>>>>>>>>>>>>>>>>>>>>>>>>>>FOR COMPONENT NO. 03<<<<<<<<<<<<<<<<<<<<<<<<<<<<<<<<<<<<<<<<<<<<<<<<<<<<<<<


                                            -------------------------------------------
                                                      TRANSPORT STEP NO.    2
                                            -------------------------------------------

 TOTAL ELAPSED TIME SINCE BEGINNING OF SIMULATION =   1900.000       d
 .....................................................................

                     CUMMULATIVE MASS BUDGETS AT END OF TRANSPORT STEP    2, TIME STEP    1, STRESS PERIOD    3
                     ------------------------------------------------------------------------------------------

                                                             IN                           OUT
                                                      ----------------             ----------------
                               CONSTANT CONCENTRATION:    0.000000                    0.000000    
                                        CONSTANT HEAD:    0.000000                  -0.1803472E-08
                                             RECHARGE:    80979.20                    0.000000    
                                   EVAPOTRANSPIRATION:    0.000000                   0.3962355    
                                MASS STORAGE (SOLUTE):    68.63644                   -81043.49    
                            ---------------------------------------------------------------------------
                                              [TOTAL]:    81047.84       mg          -81043.09       mg

                                                          NET (IN - OUT):    4.742188    
                                                   DISCREPANCY (PERCENT):   0.5851268E-02



 >>>>>>>>>>>>>>>>>>>>>>>>>>>>>>>>>>>>>>>>>>>>>>>>>>>>>>>FOR COMPONENT NO. 04<<<<<<<<<<<<<<<<<<<<<<<<<<<<<<<<<<<<<<<<<<<<<<<<<<<<<<<


                                            -------------------------------------------
                                                      TRANSPORT STEP NO.    2
                                            -------------------------------------------

 TOTAL ELAPSED TIME SINCE BEGINNING OF SIMULATION =   1900.000       d
 .....................................................................

                     CUMMULATIVE MASS BUDGETS AT END OF TRANSPORT STEP    2, TIME STEP    1, STRESS PERIOD    3
                     ------------------------------------------------------------------------------------------

                                                             IN                           OUT
                                                      ----------------             ----------------
                               CONSTANT CONCENTRATION:    0.000000                    0.000000    
                                        CONSTANT HEAD:    0.000000                    0.000000    
                                             RECHARGE:    14793.66                    0.000000    
                                   EVAPOTRANSPIRATION:    0.000000                   0.1445781    
                                MASS STORAGE (SOLUTE):    8.346285                   -14802.15    
                            ---------------------------------------------------------------------------
                                              [TOTAL]:    14802.01       mg          -14802.01       mg

                                                          NET (IN - OUT):  -0.1953125E-02
                                                   DISCREPANCY (PERCENT):  -0.1319500E-04


                                          ================================================
                                                         TIME STEP NO.  002
                                          ================================================

 FROM TIME =   1900.0     TO    2800.0    



     1 CALLS TO GCG PACKAGE FOR TRANSPORT TIME STEP   1 IN FLOW TIME STEP   2 STRESS PERIOD   3
    17 TOTAL ITERATIONS


     1 CALLS TO GCG PACKAGE FOR TRANSPORT TIME STEP   1 IN FLOW TIME STEP   2 STRESS PERIOD   3
    17 TOTAL ITERATIONS


     1 CALLS TO GCG PACKAGE FOR TRANSPORT TIME STEP   1 IN FLOW TIME STEP   2 STRESS PERIOD   3
    17 TOTAL ITERATIONS


     1 CALLS TO GCG PACKAGE FOR TRANSPORT TIME STEP   1 IN FLOW TIME STEP   2 STRESS PERIOD   3
    16 TOTAL ITERATIONS



 >>>>>>>>>>>>>>>>>>>>>>>>>>>>>>>>>>>>>>>>>>>>>>>>>>>>>>>FOR COMPONENT NO. 01<<<<<<<<<<<<<<<<<<<<<<<<<<<<<<<<<<<<<<<<<<<<<<<<<<<<<<<


                                            -------------------------------------------
                                                      TRANSPORT STEP NO.    1
                                            -------------------------------------------

 TOTAL ELAPSED TIME SINCE BEGINNING OF SIMULATION =   2461.539       d
 .....................................................................

                     CUMMULATIVE MASS BUDGETS AT END OF TRANSPORT STEP    1, TIME STEP    2, STRESS PERIOD    3
                     ------------------------------------------------------------------------------------------

                                                             IN                           OUT
                                                      ----------------             ----------------
                               CONSTANT CONCENTRATION:    0.000000                    0.000000    
                                        CONSTANT HEAD:    0.000000                  -0.5685251E-05
                                             RECHARGE:   0.2939966E+08                0.000000    
                                   EVAPOTRANSPIRATION:    0.000000                    143.8643    
                                MASS STORAGE (SOLUTE):    18791.05                  -0.2941624E+08
                            ---------------------------------------------------------------------------
                                              [TOTAL]:   0.2941845E+08   mg         -0.2941609E+08   mg

                                                          NET (IN - OUT):    2362.000    
                                                   DISCREPANCY (PERCENT):   0.8029297E-02



 >>>>>>>>>>>>>>>>>>>>>>>>>>>>>>>>>>>>>>>>>>>>>>>>>>>>>>>FOR COMPONENT NO. 02<<<<<<<<<<<<<<<<<<<<<<<<<<<<<<<<<<<<<<<<<<<<<<<<<<<<<<<


                                            -------------------------------------------
                                                      TRANSPORT STEP NO.    1
                                            -------------------------------------------

 TOTAL ELAPSED TIME SINCE BEGINNING OF SIMULATION =   2461.539       d
 .....................................................................

                     CUMMULATIVE MASS BUDGETS AT END OF TRANSPORT STEP    1, TIME STEP    2, STRESS PERIOD    3
                     ------------------------------------------------------------------------------------------

                                                             IN                           OUT
                                                      ----------------             ----------------
                               CONSTANT CONCENTRATION:    0.000000                    0.000000    
                                        CONSTANT HEAD:    0.000000                  -0.5688054E-06
                                             RECHARGE:    2865310.                    0.000000    
                                   EVAPOTRANSPIRATION:    0.000000                    13.97336    
                                MASS STORAGE (SOLUTE):    1855.300                   -2866958.    
                            ---------------------------------------------------------------------------
                                              [TOTAL]:    2867166.       mg          -2866944.       mg

                                                          NET (IN - OUT):    222.0000    
                                                   DISCREPANCY (PERCENT):   0.7743138E-02



 >>>>>>>>>>>>>>>>>>>>>>>>>>>>>>>>>>>>>>>>>>>>>>>>>>>>>>>FOR COMPONENT NO. 03<<<<<<<<<<<<<<<<<<<<<<<<<<<<<<<<<<<<<<<<<<<<<<<<<<<<<<<


                                            -------------------------------------------
                                                      TRANSPORT STEP NO.    1
                                            -------------------------------------------

 TOTAL ELAPSED TIME SINCE BEGINNING OF SIMULATION =   2461.539       d
 .....................................................................

                     CUMMULATIVE MASS BUDGETS AT END OF TRANSPORT STEP    1, TIME STEP    2, STRESS PERIOD    3
                     ------------------------------------------------------------------------------------------

                                                             IN                           OUT
                                                      ----------------             ----------------
                               CONSTANT CONCENTRATION:    0.000000                    0.000000    
                                        CONSTANT HEAD:    0.000000                  -0.2934463E-07
                                             RECHARGE:    104912.3                    0.000000    
                                   EVAPOTRANSPIRATION:    0.000000                   0.4273078    
                                MASS STORAGE (SOLUTE):    77.12105                   -104984.4    
                            ---------------------------------------------------------------------------
                                              [TOTAL]:    104989.5       mg          -104984.0       mg

                                                          NET (IN - OUT):    5.484375    
                                                   DISCREPANCY (PERCENT):   0.5223875E-02



 >>>>>>>>>>>>>>>>>>>>>>>>>>>>>>>>>>>>>>>>>>>>>>>>>>>>>>>FOR COMPONENT NO. 04<<<<<<<<<<<<<<<<<<<<<<<<<<<<<<<<<<<<<<<<<<<<<<<<<<<<<<<


                                            -------------------------------------------
                                                      TRANSPORT STEP NO.    1
                                            -------------------------------------------

 TOTAL ELAPSED TIME SINCE BEGINNING OF SIMULATION =   2461.539       d
 .....................................................................

                     CUMMULATIVE MASS BUDGETS AT END OF TRANSPORT STEP    1, TIME STEP    2, STRESS PERIOD    3
                     ------------------------------------------------------------------------------------------

                                                             IN                           OUT
                                                      ----------------             ----------------
                               CONSTANT CONCENTRATION:    0.000000                    0.000000    
                                        CONSTANT HEAD:    0.000000                  -0.8989569E-29
                                             RECHARGE:    19165.88                    0.000000    
                                   EVAPOTRANSPIRATION:    0.000000                   0.1446535    
                                MASS STORAGE (SOLUTE):    8.347550                   -19174.61    
                            ---------------------------------------------------------------------------
                                              [TOTAL]:    19174.22       mg          -19174.46       mg

                                                          NET (IN - OUT):  -0.2382812    
                                                   DISCREPANCY (PERCENT):  -0.1242709E-02
     1 CALLS TO GCG PACKAGE FOR TRANSPORT TIME STEP   2 IN FLOW TIME STEP   2 STRESS PERIOD   3
    13 TOTAL ITERATIONS
  MAXIMUM CONCENTRATION CHANGES FOR EACH ITERATION:
  MAX. CHANGE LAYER,ROW,COL MAX. CHANGE LAYER,ROW,COL MAX. CHANGE LAYER,ROW,COL MAX. CHANGE LAYER,ROW,COL MAX. CHANGE LAYER,ROW,COL
 ------------------------------------------------------------------------------------------------------------------------------------
   0.2161     (  1,133,186)  0.1889     (  1,129,181)  0.8929E-01 (  1,129,180)  0.4388E-01 (  1,129,183)  0.2655E-01 (  1,128,183)
   0.1160E-01 (  1,127,183)  0.6138E-02 (  1,131,184)  0.2650E-02 (  1,126,185)  0.1338E-02 (  1,129,184)  0.7259E-03 (  1,128,185)
   0.3135E-03 (  1,128,184)  0.1640E-03 (  1,129,184)  0.9990E-04 (  1,130,184)
     1 CALLS TO GCG PACKAGE FOR TRANSPORT TIME STEP   2 IN FLOW TIME STEP   2 STRESS PERIOD   3
    13 TOTAL ITERATIONS
  MAXIMUM CONCENTRATION CHANGES FOR EACH ITERATION:
  MAX. CHANGE LAYER,ROW,COL MAX. CHANGE LAYER,ROW,COL MAX. CHANGE LAYER,ROW,COL MAX. CHANGE LAYER,ROW,COL MAX. CHANGE LAYER,ROW,COL
 ------------------------------------------------------------------------------------------------------------------------------------
   0.2173     (  1,133,186)  0.1898     (  1,129,181)  0.8920E-01 (  1,129,180)  0.4395E-01 (  1,129,183)  0.2632E-01 (  1,128,183)
   0.1156E-01 (  1,127,183)  0.6153E-02 (  1,131,184)  0.2638E-02 (  1,126,185)  0.1342E-02 (  1,129,184)  0.7359E-03 (  1,128,185)
   0.3088E-03 (  1,128,184)  0.1663E-03 (  1,130,185)  0.9966E-04 (  1,130,184)
     1 CALLS TO GCG PACKAGE FOR TRANSPORT TIME STEP   2 IN FLOW TIME STEP   2 STRESS PERIOD   3
    13 TOTAL ITERATIONS
  MAXIMUM CONCENTRATION CHANGES FOR EACH ITERATION:
  MAX. CHANGE LAYER,ROW,COL MAX. CHANGE LAYER,ROW,COL MAX. CHANGE LAYER,ROW,COL MAX. CHANGE LAYER,ROW,COL MAX. CHANGE LAYER,ROW,COL
 ------------------------------------------------------------------------------------------------------------------------------------
   0.1981     (  1, 79, 91)  0.8818E-01 (  1, 79, 91)  0.4609E-01 (  1, 78, 91)  0.2374E-01 (  1, 79, 91)  0.1493E-01 (  1, 79, 92)
   0.6041E-02 (  1, 39, 89)  0.2946E-02 (  1, 79, 92)  0.1867E-02 (  1, 78, 92)  0.7870E-03 (  1, 40,114)  0.3955E-03 (  1, 40, 91)
   0.2185E-03 (  1, 41,113)  0.1095E-03 (  1, 40,115)  0.7564E-04 (  1, 40,114)
     1 CALLS TO GCG PACKAGE FOR TRANSPORT TIME STEP   2 IN FLOW TIME STEP   2 STRESS PERIOD   3
    13 TOTAL ITERATIONS
  MAXIMUM CONCENTRATION CHANGES FOR EACH ITERATION:
  MAX. CHANGE LAYER,ROW,COL MAX. CHANGE LAYER,ROW,COL MAX. CHANGE LAYER,ROW,COL MAX. CHANGE LAYER,ROW,COL MAX. CHANGE LAYER,ROW,COL
 ------------------------------------------------------------------------------------------------------------------------------------
   0.2045     (  1,133,186)  0.1783     (  1,129,181)  0.8734E-01 (  1,129,180)  0.4493E-01 (  1,129,183)  0.2952E-01 (  1,128,183)
   0.1221E-01 (  1,127,183)  0.5604E-02 (  1,127,185)  0.2742E-02 (  1,126,185)  0.1257E-02 (  1,128,179)  0.7521E-03 (  1,127,179)
   0.2841E-03 (  1,128,180)  0.1471E-03 (  1,130,185)  0.8380E-04 (  1,130,184)



 >>>>>>>>>>>>>>>>>>>>>>>>>>>>>>>>>>>>>>>>>>>>>>>>>>>>>>>FOR COMPONENT NO. 01<<<<<<<<<<<<<<<<<<<<<<<<<<<<<<<<<<<<<<<<<<<<<<<<<<<<<<<


                                            -------------------------------------------
                                                      TRANSPORT STEP NO.    2
                                            -------------------------------------------

 TOTAL ELAPSED TIME SINCE BEGINNING OF SIMULATION =   2800.000       d
 .....................................................................

                     CUMMULATIVE MASS BUDGETS AT END OF TRANSPORT STEP    2, TIME STEP    2, STRESS PERIOD    3
                     ------------------------------------------------------------------------------------------

                                                             IN                           OUT
                                                      ----------------             ----------------
                               CONSTANT CONCENTRATION:    0.000000                    0.000000    
                                        CONSTANT HEAD:    0.000000                  -0.1613382E-04
                                             RECHARGE:   0.3344211E+08                0.000000    
                                   EVAPOTRANSPIRATION:    0.000000                    149.4340    
                                MASS STORAGE (SOLUTE):    20924.47                  -0.3346065E+08
                            ---------------------------------------------------------------------------
                                              [TOTAL]:   0.3346303E+08   mg         -0.3346050E+08   mg

                                                          NET (IN - OUT):    2536.000    
                                                   DISCREPANCY (PERCENT):   0.7578799E-02



 >>>>>>>>>>>>>>>>>>>>>>>>>>>>>>>>>>>>>>>>>>>>>>>>>>>>>>>FOR COMPONENT NO. 02<<<<<<<<<<<<<<<<<<<<<<<<<<<<<<<<<<<<<<<<<<<<<<<<<<<<<<<


                                            -------------------------------------------
                                                      TRANSPORT STEP NO.    2
                                            -------------------------------------------

 TOTAL ELAPSED TIME SINCE BEGINNING OF SIMULATION =   2800.000       d
 .....................................................................

                     CUMMULATIVE MASS BUDGETS AT END OF TRANSPORT STEP    2, TIME STEP    2, STRESS PERIOD    3
                     ------------------------------------------------------------------------------------------

                                                             IN                           OUT
                                                      ----------------             ----------------
                               CONSTANT CONCENTRATION:    0.000000                    0.000000    
                                        CONSTANT HEAD:    0.000000                  -0.1613796E-05
                                             RECHARGE:    3259292.                    0.000000    
                                   EVAPOTRANSPIRATION:    0.000000                    14.54308    
                                MASS STORAGE (SOLUTE):    2062.198                   -3261126.    
                            ---------------------------------------------------------------------------
                                              [TOTAL]:    3261354.       mg          -3261112.       mg

                                                          NET (IN - OUT):    242.5000    
                                                   DISCREPANCY (PERCENT):   0.7435838E-02



 >>>>>>>>>>>>>>>>>>>>>>>>>>>>>>>>>>>>>>>>>>>>>>>>>>>>>>>FOR COMPONENT NO. 03<<<<<<<<<<<<<<<<<<<<<<<<<<<<<<<<<<<<<<<<<<<<<<<<<<<<<<<


                                            -------------------------------------------
                                                      TRANSPORT STEP NO.    2
                                            -------------------------------------------

 TOTAL ELAPSED TIME SINCE BEGINNING OF SIMULATION =   2800.000       d
 .....................................................................

                     CUMMULATIVE MASS BUDGETS AT END OF TRANSPORT STEP    2, TIME STEP    2, STRESS PERIOD    3
                     ------------------------------------------------------------------------------------------

                                                             IN                           OUT
                                                      ----------------             ----------------
                               CONSTANT CONCENTRATION:    0.000000                    0.000000    
                                        CONSTANT HEAD:    0.000000                  -0.8156044E-07
                                             RECHARGE:    119337.8                    0.000000    
                                   EVAPOTRANSPIRATION:    0.000000                   0.4544511    
                                MASS STORAGE (SOLUTE):    85.76743                   -119418.1    
                            ---------------------------------------------------------------------------
                                              [TOTAL]:    119423.5       mg          -119417.7       mg

                                                          NET (IN - OUT):    5.867188    
                                                   DISCREPANCY (PERCENT):   0.4913045E-02



 >>>>>>>>>>>>>>>>>>>>>>>>>>>>>>>>>>>>>>>>>>>>>>>>>>>>>>>FOR COMPONENT NO. 04<<<<<<<<<<<<<<<<<<<<<<<<<<<<<<<<<<<<<<<<<<<<<<<<<<<<<<<


                                            -------------------------------------------
                                                      TRANSPORT STEP NO.    2
                                            -------------------------------------------

 TOTAL ELAPSED TIME SINCE BEGINNING OF SIMULATION =   2800.000       d
 .....................................................................

                     CUMMULATIVE MASS BUDGETS AT END OF TRANSPORT STEP    2, TIME STEP    2, STRESS PERIOD    3
                     ------------------------------------------------------------------------------------------

                                                             IN                           OUT
                                                      ----------------             ----------------
                               CONSTANT CONCENTRATION:    0.000000                    0.000000    
                                        CONSTANT HEAD:    0.000000                  -0.2323809E-25
                                             RECHARGE:    21801.18                    0.000000    
                                   EVAPOTRANSPIRATION:    0.000000                   0.1475741    
                                MASS STORAGE (SOLUTE):    9.001162                   -21810.77    
                            ---------------------------------------------------------------------------
                                              [TOTAL]:    21810.18       mg          -21810.62       mg

                                                          NET (IN - OUT):  -0.4433594    
                                                   DISCREPANCY (PERCENT):  -0.2032789E-02


                                          ================================================
                                                         TIME STEP NO.  003
                                          ================================================

 FROM TIME =   2800.0     TO    3700.0    



     1 CALLS TO GCG PACKAGE FOR TRANSPORT TIME STEP   1 IN FLOW TIME STEP   3 STRESS PERIOD   3
    16 TOTAL ITERATIONS


     1 CALLS TO GCG PACKAGE FOR TRANSPORT TIME STEP   1 IN FLOW TIME STEP   3 STRESS PERIOD   3
    16 TOTAL ITERATIONS


     1 CALLS TO GCG PACKAGE FOR TRANSPORT TIME STEP   1 IN FLOW TIME STEP   3 STRESS PERIOD   3
    16 TOTAL ITERATIONS


     1 CALLS TO GCG PACKAGE FOR TRANSPORT TIME STEP   1 IN FLOW TIME STEP   3 STRESS PERIOD   3
    16 TOTAL ITERATIONS



 >>>>>>>>>>>>>>>>>>>>>>>>>>>>>>>>>>>>>>>>>>>>>>>>>>>>>>>FOR COMPONENT NO. 01<<<<<<<<<<<<<<<<<<<<<<<<<<<<<<<<<<<<<<<<<<<<<<<<<<<<<<<


                                            -------------------------------------------
                                                      TRANSPORT STEP NO.    1
                                            -------------------------------------------

 TOTAL ELAPSED TIME SINCE BEGINNING OF SIMULATION =   3361.539       d
 .....................................................................

                     CUMMULATIVE MASS BUDGETS AT END OF TRANSPORT STEP    1, TIME STEP    3, STRESS PERIOD    3
                     ------------------------------------------------------------------------------------------

                                                             IN                           OUT
                                                      ----------------             ----------------
                               CONSTANT CONCENTRATION:    0.000000                    0.000000    
                                        CONSTANT HEAD:    0.000000                  -0.1244584E-03
                                             RECHARGE:   0.4014891E+08                0.000000    
                                   EVAPOTRANSPIRATION:    0.000000                    156.9474    
                                MASS STORAGE (SOLUTE):    21823.51                  -0.4016743E+08
                            ---------------------------------------------------------------------------
                                              [TOTAL]:   0.4017073E+08   mg         -0.4016728E+08   mg

                                                          NET (IN - OUT):    3456.000    
                                                   DISCREPANCY (PERCENT):   0.8603648E-02



 >>>>>>>>>>>>>>>>>>>>>>>>>>>>>>>>>>>>>>>>>>>>>>>>>>>>>>>FOR COMPONENT NO. 02<<<<<<<<<<<<<<<<<<<<<<<<<<<<<<<<<<<<<<<<<<<<<<<<<<<<<<<


                                            -------------------------------------------
                                                      TRANSPORT STEP NO.    1
                                            -------------------------------------------

 TOTAL ELAPSED TIME SINCE BEGINNING OF SIMULATION =   3361.539       d
 .....................................................................

                     CUMMULATIVE MASS BUDGETS AT END OF TRANSPORT STEP    1, TIME STEP    3, STRESS PERIOD    3
                     ------------------------------------------------------------------------------------------

                                                             IN                           OUT
                                                      ----------------             ----------------
                               CONSTANT CONCENTRATION:    0.000000                    0.000000    
                                        CONSTANT HEAD:    0.000000                  -0.1244616E-04
                                             RECHARGE:    3912940.                    0.000000    
                                   EVAPOTRANSPIRATION:    0.000000                    15.34987    
                                MASS STORAGE (SOLUTE):    2152.194                   -3914770.    
                            ---------------------------------------------------------------------------
                                              [TOTAL]:    3915093.       mg          -3914754.       mg

                                                          NET (IN - OUT):    338.2500    
                                                   DISCREPANCY (PERCENT):   0.8640015E-02



 >>>>>>>>>>>>>>>>>>>>>>>>>>>>>>>>>>>>>>>>>>>>>>>>>>>>>>>FOR COMPONENT NO. 03<<<<<<<<<<<<<<<<<<<<<<<<<<<<<<<<<<<<<<<<<<<<<<<<<<<<<<<


                                            -------------------------------------------
                                                      TRANSPORT STEP NO.    1
                                            -------------------------------------------

 TOTAL ELAPSED TIME SINCE BEGINNING OF SIMULATION =   3361.539       d
 .....................................................................

                     CUMMULATIVE MASS BUDGETS AT END OF TRANSPORT STEP    1, TIME STEP    3, STRESS PERIOD    3
                     ------------------------------------------------------------------------------------------

                                                             IN                           OUT
                                                      ----------------             ----------------
                               CONSTANT CONCENTRATION:    0.000000                    0.000000    
                                        CONSTANT HEAD:    0.000000                  -0.6203090E-06
                                             RECHARGE:    143270.9                    0.000000    
                                   EVAPOTRANSPIRATION:    0.000000                   0.5011147    
                                MASS STORAGE (SOLUTE):    90.22600                   -143354.6    
                            ---------------------------------------------------------------------------
                                              [TOTAL]:    143361.1       mg          -143354.1       mg

                                                          NET (IN - OUT):    6.968750    
                                                   DISCREPANCY (PERCENT):   0.4861095E-02



 >>>>>>>>>>>>>>>>>>>>>>>>>>>>>>>>>>>>>>>>>>>>>>>>>>>>>>>FOR COMPONENT NO. 04<<<<<<<<<<<<<<<<<<<<<<<<<<<<<<<<<<<<<<<<<<<<<<<<<<<<<<<


                                            -------------------------------------------
                                                      TRANSPORT STEP NO.    1
                                            -------------------------------------------

 TOTAL ELAPSED TIME SINCE BEGINNING OF SIMULATION =   3361.539       d
 .....................................................................

                     CUMMULATIVE MASS BUDGETS AT END OF TRANSPORT STEP    1, TIME STEP    3, STRESS PERIOD    3
                     ------------------------------------------------------------------------------------------

                                                             IN                           OUT
                                                      ----------------             ----------------
                               CONSTANT CONCENTRATION:    0.000000                    0.000000    
                                        CONSTANT HEAD:    0.000000                  -0.6288874E-23
                                             RECHARGE:    26173.40                    0.000000    
                                   EVAPOTRANSPIRATION:    0.000000                   0.1513111    
                                MASS STORAGE (SOLUTE):    9.089869                   -26183.33    
                            ---------------------------------------------------------------------------
                                              [TOTAL]:    26182.49       mg          -26183.18       mg

                                                          NET (IN - OUT):  -0.6914062    
                                                   DISCREPANCY (PERCENT):  -0.2640686E-02
     1 CALLS TO GCG PACKAGE FOR TRANSPORT TIME STEP   2 IN FLOW TIME STEP   3 STRESS PERIOD   3
    13 TOTAL ITERATIONS
  MAXIMUM CONCENTRATION CHANGES FOR EACH ITERATION:
  MAX. CHANGE LAYER,ROW,COL MAX. CHANGE LAYER,ROW,COL MAX. CHANGE LAYER,ROW,COL MAX. CHANGE LAYER,ROW,COL MAX. CHANGE LAYER,ROW,COL
 ------------------------------------------------------------------------------------------------------------------------------------
   0.1964     (  1,133,186)  0.1803     (  1,128,180)  0.8567E-01 (  1,129,180)  0.3997E-01 (  1,129,183)  0.2523E-01 (  1,128,183)
   0.1091E-01 (  1,127,183)  0.5713E-02 (  1,131,184)  0.2567E-02 (  1,126,185)  0.1201E-02 (  1,129,184)  0.6353E-03 (  1,128,185)
   0.2789E-03 (  1,128,184)  0.1507E-03 (  1,130,185)  0.9227E-04 (  1,130,184)
     1 CALLS TO GCG PACKAGE FOR TRANSPORT TIME STEP   2 IN FLOW TIME STEP   3 STRESS PERIOD   3
    13 TOTAL ITERATIONS
  MAXIMUM CONCENTRATION CHANGES FOR EACH ITERATION:
  MAX. CHANGE LAYER,ROW,COL MAX. CHANGE LAYER,ROW,COL MAX. CHANGE LAYER,ROW,COL MAX. CHANGE LAYER,ROW,COL MAX. CHANGE LAYER,ROW,COL
 ------------------------------------------------------------------------------------------------------------------------------------
   0.1972     (  1,133,186)  0.1811     (  1,128,180)  0.8562E-01 (  1,129,180)  0.4010E-01 (  1,129,183)  0.2506E-01 (  1,128,183)
   0.1086E-01 (  1,127,183)  0.5721E-02 (  1,131,184)  0.2559E-02 (  1,126,185)  0.1206E-02 (  1,129,184)  0.6446E-03 (  1,128,185)
   0.2734E-03 (  1,128,184)  0.1533E-03 (  1,130,185)  0.9191E-04 (  1,130,184)
     1 CALLS TO GCG PACKAGE FOR TRANSPORT TIME STEP   2 IN FLOW TIME STEP   3 STRESS PERIOD   3
    12 TOTAL ITERATIONS
  MAXIMUM CONCENTRATION CHANGES FOR EACH ITERATION:
  MAX. CHANGE LAYER,ROW,COL MAX. CHANGE LAYER,ROW,COL MAX. CHANGE LAYER,ROW,COL MAX. CHANGE LAYER,ROW,COL MAX. CHANGE LAYER,ROW,COL
 ------------------------------------------------------------------------------------------------------------------------------------
   0.1510     (  1, 79, 91)  0.5902E-01 (  1, 79, 91)  0.3672E-01 (  1, 79, 92)  0.1742E-01 (  1, 41, 89)  0.1151E-01 (  1, 79, 92)
   0.4763E-02 (  1, 39, 89)  0.2045E-02 (  1, 79, 92)  0.1446E-02 (  1, 78, 92)  0.6280E-03 (  1, 40,114)  0.3089E-03 (  1, 40, 91)
   0.1775E-03 (  1, 41,113)  0.8643E-04 (  1, 40,115)
     1 CALLS TO GCG PACKAGE FOR TRANSPORT TIME STEP   2 IN FLOW TIME STEP   3 STRESS PERIOD   3
    13 TOTAL ITERATIONS
  MAXIMUM CONCENTRATION CHANGES FOR EACH ITERATION:
  MAX. CHANGE LAYER,ROW,COL MAX. CHANGE LAYER,ROW,COL MAX. CHANGE LAYER,ROW,COL MAX. CHANGE LAYER,ROW,COL MAX. CHANGE LAYER,ROW,COL
 ------------------------------------------------------------------------------------------------------------------------------------
   0.1880     (  1,133,186)  0.1717     (  1,128,180)  0.8353E-01 (  1,129,180)  0.4021E-01 (  1,129,183)  0.2747E-01 (  1,128,183)
   0.1162E-01 (  1,127,183)  0.5403E-02 (  1,127,185)  0.2642E-02 (  1,126,185)  0.1109E-02 (  1,128,179)  0.6893E-03 (  1,127,179)
   0.2733E-03 (  1,128,180)  0.1361E-03 (  1,130,185)  0.7880E-04 (  1,130,184)



 >>>>>>>>>>>>>>>>>>>>>>>>>>>>>>>>>>>>>>>>>>>>>>>>>>>>>>>FOR COMPONENT NO. 01<<<<<<<<<<<<<<<<<<<<<<<<<<<<<<<<<<<<<<<<<<<<<<<<<<<<<<<


                                            -------------------------------------------
                                                      TRANSPORT STEP NO.    2
                                            -------------------------------------------

 TOTAL ELAPSED TIME SINCE BEGINNING OF SIMULATION =   3700.000       d
 .....................................................................

                     CUMMULATIVE MASS BUDGETS AT END OF TRANSPORT STEP    2, TIME STEP    3, STRESS PERIOD    3
                     ------------------------------------------------------------------------------------------

                                                             IN                           OUT
                                                      ----------------             ----------------
                               CONSTANT CONCENTRATION:    0.000000                    0.000000    
                                        CONSTANT HEAD:    0.000000                  -0.2904369E-03
                                             RECHARGE:   0.4419136E+08                0.000000    
                                   EVAPOTRANSPIRATION:    0.000000                    168.3562    
                                MASS STORAGE (SOLUTE):    26927.28                  -0.4421480E+08
                            ---------------------------------------------------------------------------
                                              [TOTAL]:   0.4421828E+08   mg         -0.4421463E+08   mg

                                                          NET (IN - OUT):    3652.000    
                                                   DISCREPANCY (PERCENT):   0.8259368E-02



 >>>>>>>>>>>>>>>>>>>>>>>>>>>>>>>>>>>>>>>>>>>>>>>>>>>>>>>FOR COMPONENT NO. 02<<<<<<<<<<<<<<<<<<<<<<<<<<<<<<<<<<<<<<<<<<<<<<<<<<<<<<<


                                            -------------------------------------------
                                                      TRANSPORT STEP NO.    2
                                            -------------------------------------------

 TOTAL ELAPSED TIME SINCE BEGINNING OF SIMULATION =   3700.000       d
 .....................................................................

                     CUMMULATIVE MASS BUDGETS AT END OF TRANSPORT STEP    2, TIME STEP    3, STRESS PERIOD    3
                     ------------------------------------------------------------------------------------------

                                                             IN                           OUT
                                                      ----------------             ----------------
                               CONSTANT CONCENTRATION:    0.000000                    0.000000    
                                        CONSTANT HEAD:    0.000000                  -0.2904336E-04
                                             RECHARGE:    4306922.                    0.000000    
                                   EVAPOTRANSPIRATION:    0.000000                    16.51827    
                                MASS STORAGE (SOLUTE):    2601.875                   -4309180.    
                            ---------------------------------------------------------------------------
                                              [TOTAL]:    4309524.       mg          -4309164.       mg

                                                          NET (IN - OUT):    360.5000    
                                                   DISCREPANCY (PERCENT):   0.8365543E-02



 >>>>>>>>>>>>>>>>>>>>>>>>>>>>>>>>>>>>>>>>>>>>>>>>>>>>>>>FOR COMPONENT NO. 03<<<<<<<<<<<<<<<<<<<<<<<<<<<<<<<<<<<<<<<<<<<<<<<<<<<<<<<


                                            -------------------------------------------
                                                      TRANSPORT STEP NO.    2
                                            -------------------------------------------

 TOTAL ELAPSED TIME SINCE BEGINNING OF SIMULATION =   3700.000       d
 .....................................................................

                     CUMMULATIVE MASS BUDGETS AT END OF TRANSPORT STEP    2, TIME STEP    3, STRESS PERIOD    3
                     ------------------------------------------------------------------------------------------

                                                             IN                           OUT
                                                      ----------------             ----------------
                               CONSTANT CONCENTRATION:    0.000000                    0.000000    
                                        CONSTANT HEAD:    0.000000                  -0.1444741E-05
                                             RECHARGE:    157696.3                    0.000000    
                                   EVAPOTRANSPIRATION:    0.000000                   0.5422267    
                                MASS STORAGE (SOLUTE):    94.37318                   -157783.6    
                            ---------------------------------------------------------------------------
                                              [TOTAL]:    157790.7       mg          -157783.0       mg

                                                          NET (IN - OUT):    7.656250    
                                                   DISCREPANCY (PERCENT):   0.4852274E-02



 >>>>>>>>>>>>>>>>>>>>>>>>>>>>>>>>>>>>>>>>>>>>>>>>>>>>>>>FOR COMPONENT NO. 04<<<<<<<<<<<<<<<<<<<<<<<<<<<<<<<<<<<<<<<<<<<<<<<<<<<<<<<


                                            -------------------------------------------
                                                      TRANSPORT STEP NO.    2
                                            -------------------------------------------

 TOTAL ELAPSED TIME SINCE BEGINNING OF SIMULATION =   3700.000       d
 .....................................................................

                     CUMMULATIVE MASS BUDGETS AT END OF TRANSPORT STEP    2, TIME STEP    3, STRESS PERIOD    3
                     ------------------------------------------------------------------------------------------

                                                             IN                           OUT
                                                      ----------------             ----------------
                               CONSTANT CONCENTRATION:    0.000000                    0.000000    
                                        CONSTANT HEAD:    0.000000                  -0.4054938E-22
                                             RECHARGE:    28808.70                    0.000000    
                                   EVAPOTRANSPIRATION:    0.000000                   0.1690985    
                                MASS STORAGE (SOLUTE):    16.43533                   -28826.21    
                            ---------------------------------------------------------------------------
                                              [TOTAL]:    28825.14       mg          -28826.04       mg

                                                          NET (IN - OUT):  -0.9042969    
                                                   DISCREPANCY (PERCENT):  -0.3137132E-02


                                          ================================================
                                                         TIME STEP NO.  004
                                          ================================================

 FROM TIME =   3700.0     TO    4600.0    



     1 CALLS TO GCG PACKAGE FOR TRANSPORT TIME STEP   1 IN FLOW TIME STEP   4 STRESS PERIOD   3
    16 TOTAL ITERATIONS


     1 CALLS TO GCG PACKAGE FOR TRANSPORT TIME STEP   1 IN FLOW TIME STEP   4 STRESS PERIOD   3
    16 TOTAL ITERATIONS


     1 CALLS TO GCG PACKAGE FOR TRANSPORT TIME STEP   1 IN FLOW TIME STEP   4 STRESS PERIOD   3
    16 TOTAL ITERATIONS


     1 CALLS TO GCG PACKAGE FOR TRANSPORT TIME STEP   1 IN FLOW TIME STEP   4 STRESS PERIOD   3
    16 TOTAL ITERATIONS



 >>>>>>>>>>>>>>>>>>>>>>>>>>>>>>>>>>>>>>>>>>>>>>>>>>>>>>>FOR COMPONENT NO. 01<<<<<<<<<<<<<<<<<<<<<<<<<<<<<<<<<<<<<<<<<<<<<<<<<<<<<<<


                                            -------------------------------------------
                                                      TRANSPORT STEP NO.    1
                                            -------------------------------------------

 TOTAL ELAPSED TIME SINCE BEGINNING OF SIMULATION =   4261.539       d
 .....................................................................

                     CUMMULATIVE MASS BUDGETS AT END OF TRANSPORT STEP    1, TIME STEP    4, STRESS PERIOD    3
                     ------------------------------------------------------------------------------------------

                                                             IN                           OUT
                                                      ----------------             ----------------
                               CONSTANT CONCENTRATION:    0.000000                    0.000000    
                                        CONSTANT HEAD:    0.000000                  -0.1445011E-02
                                             RECHARGE:   0.5089816E+08                0.000000    
                                   EVAPOTRANSPIRATION:    0.000000                    186.3972    
                                MASS STORAGE (SOLUTE):    27317.13                  -0.5092103E+08
                            ---------------------------------------------------------------------------
                                              [TOTAL]:   0.5092547E+08   mg         -0.5092084E+08   mg

                                                          NET (IN - OUT):    4628.000    
                                                   DISCREPANCY (PERCENT):   0.9088202E-02



 >>>>>>>>>>>>>>>>>>>>>>>>>>>>>>>>>>>>>>>>>>>>>>>>>>>>>>>FOR COMPONENT NO. 02<<<<<<<<<<<<<<<<<<<<<<<<<<<<<<<<<<<<<<<<<<<<<<<<<<<<<<<


                                            -------------------------------------------
                                                      TRANSPORT STEP NO.    1
                                            -------------------------------------------

 TOTAL ELAPSED TIME SINCE BEGINNING OF SIMULATION =   4261.539       d
 .....................................................................

                     CUMMULATIVE MASS BUDGETS AT END OF TRANSPORT STEP    1, TIME STEP    4, STRESS PERIOD    3
                     ------------------------------------------------------------------------------------------

                                                             IN                           OUT
                                                      ----------------             ----------------
                               CONSTANT CONCENTRATION:    0.000000                    0.000000    
                                        CONSTANT HEAD:    0.000000                  -0.1444969E-03
                                             RECHARGE:    4960570.                    0.000000    
                                   EVAPOTRANSPIRATION:    0.000000                    18.39389    
                                MASS STORAGE (SOLUTE):    2640.698                   -4962769.    
                            ---------------------------------------------------------------------------
                                              [TOTAL]:    4963211.       mg          -4962750.       mg

                                                          NET (IN - OUT):    460.5000    
                                                   DISCREPANCY (PERCENT):   0.9278698E-02



 >>>>>>>>>>>>>>>>>>>>>>>>>>>>>>>>>>>>>>>>>>>>>>>>>>>>>>>FOR COMPONENT NO. 03<<<<<<<<<<<<<<<<<<<<<<<<<<<<<<<<<<<<<<<<<<<<<<<<<<<<<<<


                                            -------------------------------------------
                                                      TRANSPORT STEP NO.    1
                                            -------------------------------------------

 TOTAL ELAPSED TIME SINCE BEGINNING OF SIMULATION =   4261.539       d
 .....................................................................

                     CUMMULATIVE MASS BUDGETS AT END OF TRANSPORT STEP    1, TIME STEP    4, STRESS PERIOD    3
                     ------------------------------------------------------------------------------------------

                                                             IN                           OUT
                                                      ----------------             ----------------
                               CONSTANT CONCENTRATION:    0.000000                    0.000000    
                                        CONSTANT HEAD:    0.000000                  -0.7187423E-05
                                             RECHARGE:    181629.5                    0.000000    
                                   EVAPOTRANSPIRATION:    0.000000                   0.6157665    
                                MASS STORAGE (SOLUTE):    96.13692                   -181717.3    
                            ---------------------------------------------------------------------------
                                              [TOTAL]:    181725.6       mg          -181716.7       mg

                                                          NET (IN - OUT):    8.875000    
                                                   DISCREPANCY (PERCENT):   0.4883856E-02



 >>>>>>>>>>>>>>>>>>>>>>>>>>>>>>>>>>>>>>>>>>>>>>>>>>>>>>>FOR COMPONENT NO. 04<<<<<<<<<<<<<<<<<<<<<<<<<<<<<<<<<<<<<<<<<<<<<<<<<<<<<<<


                                            -------------------------------------------
                                                      TRANSPORT STEP NO.    1
                                            -------------------------------------------

 TOTAL ELAPSED TIME SINCE BEGINNING OF SIMULATION =   4261.539       d
 .....................................................................

                     CUMMULATIVE MASS BUDGETS AT END OF TRANSPORT STEP    1, TIME STEP    4, STRESS PERIOD    3
                     ------------------------------------------------------------------------------------------

                                                             IN                           OUT
                                                      ----------------             ----------------
                               CONSTANT CONCENTRATION:    0.000000                    0.000000    
                                        CONSTANT HEAD:    0.000000                  -0.1521455E-20
                                             RECHARGE:    33180.92                    0.000000    
                                   EVAPOTRANSPIRATION:    0.000000                   0.2023052    
                                MASS STORAGE (SOLUTE):    16.63608                   -33198.89    
                            ---------------------------------------------------------------------------
                                              [TOTAL]:    33197.55       mg          -33198.68       mg

                                                          NET (IN - OUT):   -1.128906    
                                                   DISCREPANCY (PERCENT):  -0.3400513E-02
     1 CALLS TO GCG PACKAGE FOR TRANSPORT TIME STEP   2 IN FLOW TIME STEP   4 STRESS PERIOD   3
    13 TOTAL ITERATIONS
  MAXIMUM CONCENTRATION CHANGES FOR EACH ITERATION:
  MAX. CHANGE LAYER,ROW,COL MAX. CHANGE LAYER,ROW,COL MAX. CHANGE LAYER,ROW,COL MAX. CHANGE LAYER,ROW,COL MAX. CHANGE LAYER,ROW,COL
 ------------------------------------------------------------------------------------------------------------------------------------
   0.1867     (  1,133,186)  0.1761     (  1,128,180)  0.8368E-01 (  1,129,180)  0.3776E-01 (  1,129,183)  0.2438E-01 (  1,128,183)
   0.1055E-01 (  1,128,185)  0.5478E-02 (  1,131,184)  0.2526E-02 (  1,126,185)  0.1100E-02 (  1,129,184)  0.5953E-03 (  1,128,185)
   0.2697E-03 (  1,128,184)  0.1465E-03 (  1,129,184)  0.8994E-04 (  1,130,184)
     1 CALLS TO GCG PACKAGE FOR TRANSPORT TIME STEP   2 IN FLOW TIME STEP   4 STRESS PERIOD   3
    13 TOTAL ITERATIONS
  MAXIMUM CONCENTRATION CHANGES FOR EACH ITERATION:
  MAX. CHANGE LAYER,ROW,COL MAX. CHANGE LAYER,ROW,COL MAX. CHANGE LAYER,ROW,COL MAX. CHANGE LAYER,ROW,COL MAX. CHANGE LAYER,ROW,COL
 ------------------------------------------------------------------------------------------------------------------------------------
   0.1873     (  1,133,186)  0.1768     (  1,128,180)  0.8364E-01 (  1,129,180)  0.3791E-01 (  1,129,183)  0.2424E-01 (  1,128,183)
   0.1049E-01 (  1,127,183)  0.5480E-02 (  1,131,184)  0.2521E-02 (  1,126,185)  0.1104E-02 (  1,129,184)  0.6047E-03 (  1,128,185)
   0.2649E-03 (  1,128,184)  0.1470E-03 (  1,130,185)  0.8965E-04 (  1,130,184)
     1 CALLS TO GCG PACKAGE FOR TRANSPORT TIME STEP   2 IN FLOW TIME STEP   4 STRESS PERIOD   3
    12 TOTAL ITERATIONS
  MAXIMUM CONCENTRATION CHANGES FOR EACH ITERATION:
  MAX. CHANGE LAYER,ROW,COL MAX. CHANGE LAYER,ROW,COL MAX. CHANGE LAYER,ROW,COL MAX. CHANGE LAYER,ROW,COL MAX. CHANGE LAYER,ROW,COL
 ------------------------------------------------------------------------------------------------------------------------------------
   0.1239     (  1, 79, 91)  0.4367E-01 (  1, 79, 91)  0.3188E-01 (  1, 79, 92)  0.1510E-01 (  1, 41, 89)  0.9249E-02 (  1, 79, 92)
   0.4006E-02 (  1, 39, 89)  0.1628E-02 (  1, 40,112)  0.1173E-02 (  1, 78, 92)  0.5302E-03 (  1, 40,114)  0.2545E-03 (  1, 40, 91)
   0.1525E-03 (  1, 41,113)  0.7254E-04 (  1, 40,115)
     1 CALLS TO GCG PACKAGE FOR TRANSPORT TIME STEP   2 IN FLOW TIME STEP   4 STRESS PERIOD   3
    13 TOTAL ITERATIONS
  MAXIMUM CONCENTRATION CHANGES FOR EACH ITERATION:
  MAX. CHANGE LAYER,ROW,COL MAX. CHANGE LAYER,ROW,COL MAX. CHANGE LAYER,ROW,COL MAX. CHANGE LAYER,ROW,COL MAX. CHANGE LAYER,ROW,COL
 ------------------------------------------------------------------------------------------------------------------------------------
   0.1801     (  1,133,186)  0.1687     (  1,128,180)  0.8163E-01 (  1,129,180)  0.3774E-01 (  1,129,183)  0.2615E-01 (  1,128,183)
   0.1123E-01 (  1,127,183)  0.5331E-02 (  1,127,185)  0.2594E-02 (  1,126,185)  0.1032E-02 (  1,128,179)  0.6499E-03 (  1,127,179)
   0.2660E-03 (  1,128,180)  0.1301E-03 (  1,130,185)  0.7772E-04 (  1,130,184)



 >>>>>>>>>>>>>>>>>>>>>>>>>>>>>>>>>>>>>>>>>>>>>>>>>>>>>>>FOR COMPONENT NO. 01<<<<<<<<<<<<<<<<<<<<<<<<<<<<<<<<<<<<<<<<<<<<<<<<<<<<<<<


                                            -------------------------------------------
                                                      TRANSPORT STEP NO.    2
                                            -------------------------------------------

 TOTAL ELAPSED TIME SINCE BEGINNING OF SIMULATION =   4600.000       d
 .....................................................................

                     CUMMULATIVE MASS BUDGETS AT END OF TRANSPORT STEP    2, TIME STEP    4, STRESS PERIOD    3
                     ------------------------------------------------------------------------------------------

                                                             IN                           OUT
                                                      ----------------             ----------------
                               CONSTANT CONCENTRATION:    0.000000                    0.000000    
                                        CONSTANT HEAD:    0.000000                  -0.2951720E-02
                                             RECHARGE:   0.5494061E+08                0.000000    
                                   EVAPOTRANSPIRATION:    0.000000                    204.6499    
                                MASS STORAGE (SOLUTE):    41048.27                  -0.5497704E+08
                            ---------------------------------------------------------------------------
                                              [TOTAL]:   0.5498166E+08   mg         -0.5497683E+08   mg

                                                          NET (IN - OUT):    4824.000    
                                                   DISCREPANCY (PERCENT):   0.8774220E-02



 >>>>>>>>>>>>>>>>>>>>>>>>>>>>>>>>>>>>>>>>>>>>>>>>>>>>>>>FOR COMPONENT NO. 02<<<<<<<<<<<<<<<<<<<<<<<<<<<<<<<<<<<<<<<<<<<<<<<<<<<<<<<


                                            -------------------------------------------
                                                      TRANSPORT STEP NO.    2
                                            -------------------------------------------

 TOTAL ELAPSED TIME SINCE BEGINNING OF SIMULATION =   4600.000       d
 .....................................................................

                     CUMMULATIVE MASS BUDGETS AT END OF TRANSPORT STEP    2, TIME STEP    4, STRESS PERIOD    3
                     ------------------------------------------------------------------------------------------

                                                             IN                           OUT
                                                      ----------------             ----------------
                               CONSTANT CONCENTRATION:    0.000000                    0.000000    
                                        CONSTANT HEAD:    0.000000                  -0.2951641E-03
                                             RECHARGE:    5354552.                    0.000000    
                                   EVAPOTRANSPIRATION:    0.000000                    20.23504    
                                MASS STORAGE (SOLUTE):    3857.268                   -5357946.    
                            ---------------------------------------------------------------------------
                                              [TOTAL]:    5358410.       mg          -5357926.       mg

                                                          NET (IN - OUT):    483.5000    
                                                   DISCREPANCY (PERCENT):   0.9023607E-02



 >>>>>>>>>>>>>>>>>>>>>>>>>>>>>>>>>>>>>>>>>>>>>>>>>>>>>>>FOR COMPONENT NO. 03<<<<<<<<<<<<<<<<<<<<<<<<<<<<<<<<<<<<<<<<<<<<<<<<<<<<<<<


                                            -------------------------------------------
                                                      TRANSPORT STEP NO.    2
                                            -------------------------------------------

 TOTAL ELAPSED TIME SINCE BEGINNING OF SIMULATION =   4600.000       d
 .....................................................................

                     CUMMULATIVE MASS BUDGETS AT END OF TRANSPORT STEP    2, TIME STEP    4, STRESS PERIOD    3
                     ------------------------------------------------------------------------------------------

                                                             IN                           OUT
                                                      ----------------             ----------------
                               CONSTANT CONCENTRATION:    0.000000                    0.000000    
                                        CONSTANT HEAD:    0.000000                  -0.1468884E-04
                                             RECHARGE:    196054.9                    0.000000    
                                   EVAPOTRANSPIRATION:    0.000000                   0.6733419    
                                MASS STORAGE (SOLUTE):    97.72260                   -196143.7    
                            ---------------------------------------------------------------------------
                                              [TOTAL]:    196152.6       mg          -196143.0       mg

                                                          NET (IN - OUT):    9.593750    
                                                   DISCREPANCY (PERCENT):   0.4891082E-02



 >>>>>>>>>>>>>>>>>>>>>>>>>>>>>>>>>>>>>>>>>>>>>>>>>>>>>>>FOR COMPONENT NO. 04<<<<<<<<<<<<<<<<<<<<<<<<<<<<<<<<<<<<<<<<<<<<<<<<<<<<<<<


                                            -------------------------------------------
                                                      TRANSPORT STEP NO.    2
                                            -------------------------------------------

 TOTAL ELAPSED TIME SINCE BEGINNING OF SIMULATION =   4600.000       d
 .....................................................................

                     CUMMULATIVE MASS BUDGETS AT END OF TRANSPORT STEP    2, TIME STEP    4, STRESS PERIOD    3
                     ------------------------------------------------------------------------------------------

                                                             IN                           OUT
                                                      ----------------             ----------------
                               CONSTANT CONCENTRATION:    0.000000                    0.000000    
                                        CONSTANT HEAD:    0.000000                  -0.5036401E-20
                                             RECHARGE:    35816.23                    0.000000    
                                   EVAPOTRANSPIRATION:    0.000000                   0.2393455    
                                MASS STORAGE (SOLUTE):    43.26593                   -35861.07    
                            ---------------------------------------------------------------------------
                                              [TOTAL]:    35859.49       mg          -35860.83       mg

                                                          NET (IN - OUT):   -1.339844    
                                                   DISCREPANCY (PERCENT):  -0.3736301E-02


                                          ================================================
                                                         TIME STEP NO.  005
                                          ================================================

 FROM TIME =   4600.0     TO    5500.0    



     1 CALLS TO GCG PACKAGE FOR TRANSPORT TIME STEP   1 IN FLOW TIME STEP   5 STRESS PERIOD   3
    16 TOTAL ITERATIONS


     1 CALLS TO GCG PACKAGE FOR TRANSPORT TIME STEP   1 IN FLOW TIME STEP   5 STRESS PERIOD   3
    16 TOTAL ITERATIONS


     1 CALLS TO GCG PACKAGE FOR TRANSPORT TIME STEP   1 IN FLOW TIME STEP   5 STRESS PERIOD   3
    15 TOTAL ITERATIONS


     1 CALLS TO GCG PACKAGE FOR TRANSPORT TIME STEP   1 IN FLOW TIME STEP   5 STRESS PERIOD   3
    16 TOTAL ITERATIONS



 >>>>>>>>>>>>>>>>>>>>>>>>>>>>>>>>>>>>>>>>>>>>>>>>>>>>>>>FOR COMPONENT NO. 01<<<<<<<<<<<<<<<<<<<<<<<<<<<<<<<<<<<<<<<<<<<<<<<<<<<<<<<


                                            -------------------------------------------
                                                      TRANSPORT STEP NO.    1
                                            -------------------------------------------

 TOTAL ELAPSED TIME SINCE BEGINNING OF SIMULATION =   5161.539       d
 .....................................................................

                     CUMMULATIVE MASS BUDGETS AT END OF TRANSPORT STEP    1, TIME STEP    5, STRESS PERIOD    3
                     ------------------------------------------------------------------------------------------

                                                             IN                           OUT
                                                      ----------------             ----------------
                               CONSTANT CONCENTRATION:    0.000000                    0.000000    
                                        CONSTANT HEAD:    0.000000                  -0.1102194E-01
                                             RECHARGE:   0.6164741E+08                0.000000    
                                   EVAPOTRANSPIRATION:    0.000000                    236.8279    
                                MASS STORAGE (SOLUTE):    41208.84                  -0.6168298E+08
                            ---------------------------------------------------------------------------
                                              [TOTAL]:   0.6168862E+08   mg         -0.6168275E+08   mg

                                                          NET (IN - OUT):    5868.000    
                                                   DISCREPANCY (PERCENT):   0.9512743E-02



 >>>>>>>>>>>>>>>>>>>>>>>>>>>>>>>>>>>>>>>>>>>>>>>>>>>>>>>FOR COMPONENT NO. 02<<<<<<<<<<<<<<<<<<<<<<<<<<<<<<<<<<<<<<<<<<<<<<<<<<<<<<<


                                            -------------------------------------------
                                                      TRANSPORT STEP NO.    1
                                            -------------------------------------------

 TOTAL ELAPSED TIME SINCE BEGINNING OF SIMULATION =   5161.539       d
 .....................................................................

                     CUMMULATIVE MASS BUDGETS AT END OF TRANSPORT STEP    1, TIME STEP    5, STRESS PERIOD    3
                     ------------------------------------------------------------------------------------------

                                                             IN                           OUT
                                                      ----------------             ----------------
                               CONSTANT CONCENTRATION:    0.000000                    0.000000    
                                        CONSTANT HEAD:    0.000000                  -0.1102178E-02
                                             RECHARGE:    6008200.                    0.000000    
                                   EVAPOTRANSPIRATION:    0.000000                    23.43967    
                                MASS STORAGE (SOLUTE):    3872.733                   -6011506.    
                            ---------------------------------------------------------------------------
                                              [TOTAL]:    6012073.       mg          -6011483.       mg

                                                          NET (IN - OUT):    590.0000    
                                                   DISCREPANCY (PERCENT):   0.9814069E-02



 >>>>>>>>>>>>>>>>>>>>>>>>>>>>>>>>>>>>>>>>>>>>>>>>>>>>>>>FOR COMPONENT NO. 03<<<<<<<<<<<<<<<<<<<<<<<<<<<<<<<<<<<<<<<<<<<<<<<<<<<<<<<


                                            -------------------------------------------
                                                      TRANSPORT STEP NO.    1
                                            -------------------------------------------

 TOTAL ELAPSED TIME SINCE BEGINNING OF SIMULATION =   5161.539       d
 .....................................................................

                     CUMMULATIVE MASS BUDGETS AT END OF TRANSPORT STEP    1, TIME STEP    5, STRESS PERIOD    3
                     ------------------------------------------------------------------------------------------

                                                             IN                           OUT
                                                      ----------------             ----------------
                               CONSTANT CONCENTRATION:    0.000000                    0.000000    
                                        CONSTANT HEAD:    0.000000                  -0.5493779E-04
                                             RECHARGE:    219988.0                    0.000000    
                                   EVAPOTRANSPIRATION:    0.000000                   0.7732958    
                                MASS STORAGE (SOLUTE):    98.25671                   -220075.5    
                            ---------------------------------------------------------------------------
                                              [TOTAL]:    220086.3       mg          -220074.7       mg

                                                          NET (IN - OUT):    11.53125    
                                                   DISCREPANCY (PERCENT):   0.5239560E-02



 >>>>>>>>>>>>>>>>>>>>>>>>>>>>>>>>>>>>>>>>>>>>>>>>>>>>>>>FOR COMPONENT NO. 04<<<<<<<<<<<<<<<<<<<<<<<<<<<<<<<<<<<<<<<<<<<<<<<<<<<<<<<


                                            -------------------------------------------
                                                      TRANSPORT STEP NO.    1
                                            -------------------------------------------

 TOTAL ELAPSED TIME SINCE BEGINNING OF SIMULATION =   5161.539       d
 .....................................................................

                     CUMMULATIVE MASS BUDGETS AT END OF TRANSPORT STEP    1, TIME STEP    5, STRESS PERIOD    3
                     ------------------------------------------------------------------------------------------

                                                             IN                           OUT
                                                      ----------------             ----------------
                               CONSTANT CONCENTRATION:    0.000000                    0.000000    
                                        CONSTANT HEAD:    0.000000                  -0.7465790E-19
                                             RECHARGE:    40188.45                    0.000000    
                                   EVAPOTRANSPIRATION:    0.000000                   0.3092889    
                                MASS STORAGE (SOLUTE):    43.52552                   -40233.79    
                            ---------------------------------------------------------------------------
                                              [TOTAL]:    40231.97       mg          -40233.48       mg

                                                          NET (IN - OUT):   -1.511719    
                                                   DISCREPANCY (PERCENT):  -0.3757436E-02
     1 CALLS TO GCG PACKAGE FOR TRANSPORT TIME STEP   2 IN FLOW TIME STEP   5 STRESS PERIOD   3
    13 TOTAL ITERATIONS
  MAXIMUM CONCENTRATION CHANGES FOR EACH ITERATION:
  MAX. CHANGE LAYER,ROW,COL MAX. CHANGE LAYER,ROW,COL MAX. CHANGE LAYER,ROW,COL MAX. CHANGE LAYER,ROW,COL MAX. CHANGE LAYER,ROW,COL
 ------------------------------------------------------------------------------------------------------------------------------------
   0.1837     (  1,127,180)  0.1734     (  1,128,180)  0.8254E-01 (  1,129,180)  0.3638E-01 (  1,129,183)  0.2384E-01 (  1,128,183)
   0.1042E-01 (  1,128,185)  0.5357E-02 (  1,127,185)  0.2504E-02 (  1,126,185)  0.1036E-02 (  1,129,184)  0.5679E-03 (  1,128,185)
   0.2625E-03 (  1,128,184)  0.1438E-03 (  1,129,184)  0.8810E-04 (  1,130,184)
     1 CALLS TO GCG PACKAGE FOR TRANSPORT TIME STEP   2 IN FLOW TIME STEP   5 STRESS PERIOD   3
    13 TOTAL ITERATIONS
  MAXIMUM CONCENTRATION CHANGES FOR EACH ITERATION:
  MAX. CHANGE LAYER,ROW,COL MAX. CHANGE LAYER,ROW,COL MAX. CHANGE LAYER,ROW,COL MAX. CHANGE LAYER,ROW,COL MAX. CHANGE LAYER,ROW,COL
 ------------------------------------------------------------------------------------------------------------------------------------
   0.1842     (  1,127,180)  0.1741     (  1,128,180)  0.8250E-01 (  1,129,180)  0.3654E-01 (  1,129,183)  0.2374E-01 (  1,128,183)
   0.1028E-01 (  1,128,185)  0.5341E-02 (  1,127,185)  0.2502E-02 (  1,126,185)  0.1038E-02 (  1,129,184)  0.5772E-03 (  1,128,185)
   0.2581E-03 (  1,128,184)  0.1428E-03 (  1,129,184)  0.8780E-04 (  1,130,184)
     1 CALLS TO GCG PACKAGE FOR TRANSPORT TIME STEP   2 IN FLOW TIME STEP   5 STRESS PERIOD   3
    12 TOTAL ITERATIONS
  MAXIMUM CONCENTRATION CHANGES FOR EACH ITERATION:
  MAX. CHANGE LAYER,ROW,COL MAX. CHANGE LAYER,ROW,COL MAX. CHANGE LAYER,ROW,COL MAX. CHANGE LAYER,ROW,COL MAX. CHANGE LAYER,ROW,COL
 ------------------------------------------------------------------------------------------------------------------------------------
   0.1063     (  1, 79, 91)  0.3439E-01 (  1, 79, 91)  0.2810E-01 (  1, 79, 92)  0.1354E-01 (  1, 41, 89)  0.7699E-02 (  1, 79, 92)
   0.3529E-02 (  1, 78, 92)  0.1451E-02 (  1, 70, 77)  0.9837E-03 (  1, 78, 92)  0.4603E-03 (  1, 40,114)  0.2196E-03 (  1, 40, 91)
   0.1343E-03 (  1, 41,113)  0.6241E-04 (  1, 40,115)
     1 CALLS TO GCG PACKAGE FOR TRANSPORT TIME STEP   2 IN FLOW TIME STEP   5 STRESS PERIOD   3
    13 TOTAL ITERATIONS
  MAXIMUM CONCENTRATION CHANGES FOR EACH ITERATION:
  MAX. CHANGE LAYER,ROW,COL MAX. CHANGE LAYER,ROW,COL MAX. CHANGE LAYER,ROW,COL MAX. CHANGE LAYER,ROW,COL MAX. CHANGE LAYER,ROW,COL
 ------------------------------------------------------------------------------------------------------------------------------------
   0.1781     (  1,127,180)  0.1670     (  1,128,180)  0.8063E-01 (  1,129,180)  0.3629E-01 (  1,129,183)  0.2530E-01 (  1,128,183)
   0.1098E-01 (  1,128,182)  0.5285E-02 (  1,127,185)  0.2568E-02 (  1,126,185)  0.9819E-03 (  1,128,179)  0.6242E-03 (  1,127,179)
   0.2600E-03 (  1,128,180)  0.1285E-03 (  1,127,180)  0.7671E-04 (  1,130,184)



 >>>>>>>>>>>>>>>>>>>>>>>>>>>>>>>>>>>>>>>>>>>>>>>>>>>>>>>FOR COMPONENT NO. 01<<<<<<<<<<<<<<<<<<<<<<<<<<<<<<<<<<<<<<<<<<<<<<<<<<<<<<<


                                            -------------------------------------------
                                                      TRANSPORT STEP NO.    2
                                            -------------------------------------------

 TOTAL ELAPSED TIME SINCE BEGINNING OF SIMULATION =   5500.000       d
 .....................................................................

                     CUMMULATIVE MASS BUDGETS AT END OF TRANSPORT STEP    2, TIME STEP    5, STRESS PERIOD    3
                     ------------------------------------------------------------------------------------------

                                                             IN                           OUT
                                                      ----------------             ----------------
                               CONSTANT CONCENTRATION:    0.000000                    0.000000    
                                        CONSTANT HEAD:    0.000000                  -0.2036101E-01
                                             RECHARGE:   0.6568986E+08                0.000000    
                                   EVAPOTRANSPIRATION:    0.000000                    264.0935    
                                MASS STORAGE (SOLUTE):    62650.42                  -0.6574672E+08
                            ---------------------------------------------------------------------------
                                              [TOTAL]:   0.6575251E+08   mg         -0.6574645E+08   mg

                                                          NET (IN - OUT):    6060.000    
                                                   DISCREPANCY (PERCENT):   0.9216803E-02



 >>>>>>>>>>>>>>>>>>>>>>>>>>>>>>>>>>>>>>>>>>>>>>>>>>>>>>>FOR COMPONENT NO. 02<<<<<<<<<<<<<<<<<<<<<<<<<<<<<<<<<<<<<<<<<<<<<<<<<<<<<<<


                                            -------------------------------------------
                                                      TRANSPORT STEP NO.    2
                                            -------------------------------------------

 TOTAL ELAPSED TIME SINCE BEGINNING OF SIMULATION =   5500.000       d
 .....................................................................

                     CUMMULATIVE MASS BUDGETS AT END OF TRANSPORT STEP    2, TIME STEP    5, STRESS PERIOD    3
                     ------------------------------------------------------------------------------------------

                                                             IN                           OUT
                                                      ----------------             ----------------
                               CONSTANT CONCENTRATION:    0.000000                    0.000000    
                                        CONSTANT HEAD:    0.000000                  -0.2036084E-02
                                             RECHARGE:    6402182.                    0.000000    
                                   EVAPOTRANSPIRATION:    0.000000                    26.12673    
                                MASS STORAGE (SOLUTE):    5779.565                   -6407375.    
                            ---------------------------------------------------------------------------
                                              [TOTAL]:    6407962.       mg          -6407349.       mg

                                                          NET (IN - OUT):    612.5000    
                                                   DISCREPANCY (PERCENT):   0.9558879E-02



 >>>>>>>>>>>>>>>>>>>>>>>>>>>>>>>>>>>>>>>>>>>>>>>>>>>>>>>FOR COMPONENT NO. 03<<<<<<<<<<<<<<<<<<<<<<<<<<<<<<<<<<<<<<<<<<<<<<<<<<<<<<<


                                            -------------------------------------------
                                                      TRANSPORT STEP NO.    2
                                            -------------------------------------------

 TOTAL ELAPSED TIME SINCE BEGINNING OF SIMULATION =   5500.000       d
 .....................................................................

                     CUMMULATIVE MASS BUDGETS AT END OF TRANSPORT STEP    2, TIME STEP    5, STRESS PERIOD    3
                     ------------------------------------------------------------------------------------------

                                                             IN                           OUT
                                                      ----------------             ----------------
                               CONSTANT CONCENTRATION:    0.000000                    0.000000    
                                        CONSTANT HEAD:    0.000000                  -0.1015505E-03
                                             RECHARGE:    234413.4                    0.000000    
                                   EVAPOTRANSPIRATION:    0.000000                   0.8498985    
                                MASS STORAGE (SOLUTE):    99.00051                   -234501.0    
                            ---------------------------------------------------------------------------
                                              [TOTAL]:    234512.4       mg          -234500.1       mg

                                                          NET (IN - OUT):    12.32812    
                                                   DISCREPANCY (PERCENT):   0.5257055E-02



 >>>>>>>>>>>>>>>>>>>>>>>>>>>>>>>>>>>>>>>>>>>>>>>>>>>>>>>FOR COMPONENT NO. 04<<<<<<<<<<<<<<<<<<<<<<<<<<<<<<<<<<<<<<<<<<<<<<<<<<<<<<<


                                            -------------------------------------------
                                                      TRANSPORT STEP NO.    2
                                            -------------------------------------------

 TOTAL ELAPSED TIME SINCE BEGINNING OF SIMULATION =   5500.000       d
 .....................................................................

                     CUMMULATIVE MASS BUDGETS AT END OF TRANSPORT STEP    2, TIME STEP    5, STRESS PERIOD    3
                     ------------------------------------------------------------------------------------------

                                                             IN                           OUT
                                                      ----------------             ----------------
                               CONSTANT CONCENTRATION:    0.000000                    0.000000    
                                        CONSTANT HEAD:    0.000000                  -0.1992892E-18
                                             RECHARGE:    42823.75                    0.000000    
                                   EVAPOTRANSPIRATION:    0.000000                   0.3681315    
                                MASS STORAGE (SOLUTE):    86.97946                   -42912.82    
                            ---------------------------------------------------------------------------
                                              [TOTAL]:    42910.73       mg          -42912.45       mg

                                                          NET (IN - OUT):   -1.722656    
                                                   DISCREPANCY (PERCENT):  -0.4014431E-02


                                          ================================================
                                                         TIME STEP NO.  006
                                          ================================================

 FROM TIME =   5500.0     TO    6400.0    



     1 CALLS TO GCG PACKAGE FOR TRANSPORT TIME STEP   1 IN FLOW TIME STEP   6 STRESS PERIOD   3
    16 TOTAL ITERATIONS


     1 CALLS TO GCG PACKAGE FOR TRANSPORT TIME STEP   1 IN FLOW TIME STEP   6 STRESS PERIOD   3
    16 TOTAL ITERATIONS


     1 CALLS TO GCG PACKAGE FOR TRANSPORT TIME STEP   1 IN FLOW TIME STEP   6 STRESS PERIOD   3
    15 TOTAL ITERATIONS


     1 CALLS TO GCG PACKAGE FOR TRANSPORT TIME STEP   1 IN FLOW TIME STEP   6 STRESS PERIOD   3
    16 TOTAL ITERATIONS



 >>>>>>>>>>>>>>>>>>>>>>>>>>>>>>>>>>>>>>>>>>>>>>>>>>>>>>>FOR COMPONENT NO. 01<<<<<<<<<<<<<<<<<<<<<<<<<<<<<<<<<<<<<<<<<<<<<<<<<<<<<<<


                                            -------------------------------------------
                                                      TRANSPORT STEP NO.    1
                                            -------------------------------------------

 TOTAL ELAPSED TIME SINCE BEGINNING OF SIMULATION =   6061.539       d
 .....................................................................

                     CUMMULATIVE MASS BUDGETS AT END OF TRANSPORT STEP    1, TIME STEP    6, STRESS PERIOD    3
                     ------------------------------------------------------------------------------------------

                                                             IN                           OUT
                                                      ----------------             ----------------
                               CONSTANT CONCENTRATION:    0.000000                    0.000000    
                                        CONSTANT HEAD:    0.000000                  -0.6179462E-01
                                             RECHARGE:   0.7239666E+08                0.000000    
                                   EVAPOTRANSPIRATION:    0.000000                    308.4628    
                                MASS STORAGE (SOLUTE):    62870.27                  -0.7245268E+08
                            ---------------------------------------------------------------------------
                                              [TOTAL]:   0.7245953E+08   mg         -0.7245237E+08   mg

                                                          NET (IN - OUT):    7160.000    
                                                   DISCREPANCY (PERCENT):   0.9881866E-02



 >>>>>>>>>>>>>>>>>>>>>>>>>>>>>>>>>>>>>>>>>>>>>>>>>>>>>>>FOR COMPONENT NO. 02<<<<<<<<<<<<<<<<<<<<<<<<<<<<<<<<<<<<<<<<<<<<<<<<<<<<<<<


                                            -------------------------------------------
                                                      TRANSPORT STEP NO.    1
                                            -------------------------------------------

 TOTAL ELAPSED TIME SINCE BEGINNING OF SIMULATION =   6061.539       d
 .....................................................................

                     CUMMULATIVE MASS BUDGETS AT END OF TRANSPORT STEP    1, TIME STEP    6, STRESS PERIOD    3
                     ------------------------------------------------------------------------------------------

                                                             IN                           OUT
                                                      ----------------             ----------------
                               CONSTANT CONCENTRATION:    0.000000                    0.000000    
                                        CONSTANT HEAD:    0.000000                  -0.6179483E-02
                                             RECHARGE:    7055830.                    0.000000    
                                   EVAPOTRANSPIRATION:    0.000000                    30.56824    
                                MASS STORAGE (SOLUTE):    5798.388                   -7060937.    
                            ---------------------------------------------------------------------------
                                              [TOTAL]:    7061629.       mg          -7060906.       mg

                                                          NET (IN - OUT):    722.5000    
                                                   DISCREPANCY (PERCENT):   0.1023187E-01



 >>>>>>>>>>>>>>>>>>>>>>>>>>>>>>>>>>>>>>>>>>>>>>>>>>>>>>>FOR COMPONENT NO. 03<<<<<<<<<<<<<<<<<<<<<<<<<<<<<<<<<<<<<<<<<<<<<<<<<<<<<<<


                                            -------------------------------------------
                                                      TRANSPORT STEP NO.    1
                                            -------------------------------------------

 TOTAL ELAPSED TIME SINCE BEGINNING OF SIMULATION =   6061.539       d
 .....................................................................

                     CUMMULATIVE MASS BUDGETS AT END OF TRANSPORT STEP    1, TIME STEP    6, STRESS PERIOD    3
                     ------------------------------------------------------------------------------------------

                                                             IN                           OUT
                                                      ----------------             ----------------
                               CONSTANT CONCENTRATION:    0.000000                    0.000000    
                                        CONSTANT HEAD:    0.000000                  -0.3085341E-03
                                             RECHARGE:    258346.6                    0.000000    
                                   EVAPOTRANSPIRATION:    0.000000                   0.9834054    
                                MASS STORAGE (SOLUTE):    99.35291                   -258432.4    
                            ---------------------------------------------------------------------------
                                              [TOTAL]:    258445.9       mg          -258431.4       mg

                                                          NET (IN - OUT):    14.56250    
                                                   DISCREPANCY (PERCENT):   0.5634800E-02



 >>>>>>>>>>>>>>>>>>>>>>>>>>>>>>>>>>>>>>>>>>>>>>>>>>>>>>>FOR COMPONENT NO. 04<<<<<<<<<<<<<<<<<<<<<<<<<<<<<<<<<<<<<<<<<<<<<<<<<<<<<<<


                                            -------------------------------------------
                                                      TRANSPORT STEP NO.    1
                                            -------------------------------------------

 TOTAL ELAPSED TIME SINCE BEGINNING OF SIMULATION =   6061.539       d
 .....................................................................

                     CUMMULATIVE MASS BUDGETS AT END OF TRANSPORT STEP    1, TIME STEP    6, STRESS PERIOD    3
                     ------------------------------------------------------------------------------------------

                                                             IN                           OUT
                                                      ----------------             ----------------
                               CONSTANT CONCENTRATION:    0.000000                    0.000000    
                                        CONSTANT HEAD:    0.000000                  -0.1828963E-17
                                             RECHARGE:    47195.97                    0.000000    
                                   EVAPOTRANSPIRATION:    0.000000                   0.4711854    
                                MASS STORAGE (SOLUTE):    87.31565                   -47285.63    
                            ---------------------------------------------------------------------------
                                              [TOTAL]:    47283.29       mg          -47285.16       mg

                                                          NET (IN - OUT):   -1.871094    
                                                   DISCREPANCY (PERCENT):  -0.3957121E-02
     1 CALLS TO GCG PACKAGE FOR TRANSPORT TIME STEP   2 IN FLOW TIME STEP   6 STRESS PERIOD   3
    13 TOTAL ITERATIONS
  MAXIMUM CONCENTRATION CHANGES FOR EACH ITERATION:
  MAX. CHANGE LAYER,ROW,COL MAX. CHANGE LAYER,ROW,COL MAX. CHANGE LAYER,ROW,COL MAX. CHANGE LAYER,ROW,COL MAX. CHANGE LAYER,ROW,COL
 ------------------------------------------------------------------------------------------------------------------------------------
   0.1840     (  1,127,180)  0.1720     (  1,128,180)  0.8200E-01 (  1,129,180)  0.3549E-01 (  1,129,183)  0.2351E-01 (  1,128,183)
   0.1031E-01 (  1,128,185)  0.5298E-02 (  1,127,185)  0.2488E-02 (  1,126,185)  0.9986E-03 (  1,129,184)  0.5454E-03 (  1,128,185)
   0.2541E-03 (  1,128,184)  0.1401E-03 (  1,129,184)  0.8613E-04 (  1,130,184)
     1 CALLS TO GCG PACKAGE FOR TRANSPORT TIME STEP   2 IN FLOW TIME STEP   6 STRESS PERIOD   3
    13 TOTAL ITERATIONS
  MAXIMUM CONCENTRATION CHANGES FOR EACH ITERATION:
  MAX. CHANGE LAYER,ROW,COL MAX. CHANGE LAYER,ROW,COL MAX. CHANGE LAYER,ROW,COL MAX. CHANGE LAYER,ROW,COL MAX. CHANGE LAYER,ROW,COL
 ------------------------------------------------------------------------------------------------------------------------------------
   0.1845     (  1,127,180)  0.1726     (  1,128,180)  0.8195E-01 (  1,129,180)  0.3565E-01 (  1,129,183)  0.2343E-01 (  1,128,183)
   0.1018E-01 (  1,128,185)  0.5282E-02 (  1,127,185)  0.2487E-02 (  1,126,185)  0.9997E-03 (  1,129,184)  0.5542E-03 (  1,128,185)
   0.2496E-03 (  1,128,184)  0.1390E-03 (  1,129,184)  0.8577E-04 (  1,130,184)
     1 CALLS TO GCG PACKAGE FOR TRANSPORT TIME STEP   2 IN FLOW TIME STEP   6 STRESS PERIOD   3
    12 TOTAL ITERATIONS
  MAXIMUM CONCENTRATION CHANGES FOR EACH ITERATION:
  MAX. CHANGE LAYER,ROW,COL MAX. CHANGE LAYER,ROW,COL MAX. CHANGE LAYER,ROW,COL MAX. CHANGE LAYER,ROW,COL MAX. CHANGE LAYER,ROW,COL
 ------------------------------------------------------------------------------------------------------------------------------------
   0.9391E-01 (  1, 79, 91)  0.2875E-01 (  1, 39, 89)  0.2513E-01 (  1, 79, 92)  0.1238E-01 (  1, 41, 89)  0.6594E-02 (  1, 79, 92)
   0.3245E-02 (  1, 78, 92)  0.1341E-02 (  1, 70, 77)  0.8465E-03 (  1, 78, 92)  0.4089E-03 (  1, 40,114)  0.1951E-03 (  1, 40, 91)
   0.1207E-03 (  1, 41,113)  0.5496E-04 (  1, 40,115)
     1 CALLS TO GCG PACKAGE FOR TRANSPORT TIME STEP   2 IN FLOW TIME STEP   6 STRESS PERIOD   3
    13 TOTAL ITERATIONS
  MAXIMUM CONCENTRATION CHANGES FOR EACH ITERATION:
  MAX. CHANGE LAYER,ROW,COL MAX. CHANGE LAYER,ROW,COL MAX. CHANGE LAYER,ROW,COL MAX. CHANGE LAYER,ROW,COL MAX. CHANGE LAYER,ROW,COL
 ------------------------------------------------------------------------------------------------------------------------------------
   0.1790     (  1,127,180)  0.1664     (  1,128,180)  0.8020E-01 (  1,129,180)  0.3538E-01 (  1,129,183)  0.2477E-01 (  1,128,183)
   0.1095E-01 (  1,128,182)  0.5241E-02 (  1,127,185)  0.2547E-02 (  1,126,185)  0.9643E-03 (  1,125,184)  0.6067E-03 (  1,127,179)
   0.2567E-03 (  1,128,180)  0.1289E-03 (  1,127,180)  0.7546E-04 (  1,130,184)



 >>>>>>>>>>>>>>>>>>>>>>>>>>>>>>>>>>>>>>>>>>>>>>>>>>>>>>>FOR COMPONENT NO. 01<<<<<<<<<<<<<<<<<<<<<<<<<<<<<<<<<<<<<<<<<<<<<<<<<<<<<<<


                                            -------------------------------------------
                                                      TRANSPORT STEP NO.    2
                                            -------------------------------------------

 TOTAL ELAPSED TIME SINCE BEGINNING OF SIMULATION =   6400.000       d
 .....................................................................

                     CUMMULATIVE MASS BUDGETS AT END OF TRANSPORT STEP    2, TIME STEP    6, STRESS PERIOD    3
                     ------------------------------------------------------------------------------------------

                                                             IN                           OUT
                                                      ----------------             ----------------
                               CONSTANT CONCENTRATION:    0.000000                    0.000000    
                                        CONSTANT HEAD:    0.000000                  -0.1054746    
                                             RECHARGE:   0.7643910E+08                0.000000    
                                   EVAPOTRANSPIRATION:    0.000000                    342.5316    
                                MASS STORAGE (SOLUTE):    90602.29                  -0.7652270E+08
                            ---------------------------------------------------------------------------
                                              [TOTAL]:   0.7652970E+08   mg         -0.7652236E+08   mg

                                                          NET (IN - OUT):    7344.000    
                                                   DISCREPANCY (PERCENT):   0.9596734E-02



 >>>>>>>>>>>>>>>>>>>>>>>>>>>>>>>>>>>>>>>>>>>>>>>>>>>>>>>FOR COMPONENT NO. 02<<<<<<<<<<<<<<<<<<<<<<<<<<<<<<<<<<<<<<<<<<<<<<<<<<<<<<<


                                            -------------------------------------------
                                                      TRANSPORT STEP NO.    2
                                            -------------------------------------------

 TOTAL ELAPSED TIME SINCE BEGINNING OF SIMULATION =   6400.000       d
 .....................................................................

                     CUMMULATIVE MASS BUDGETS AT END OF TRANSPORT STEP    2, TIME STEP    6, STRESS PERIOD    3
                     ------------------------------------------------------------------------------------------

                                                             IN                           OUT
                                                      ----------------             ----------------
                               CONSTANT CONCENTRATION:    0.000000                    0.000000    
                                        CONSTANT HEAD:    0.000000                  -0.1054754E-01
                                             RECHARGE:    7449812.                    0.000000    
                                   EVAPOTRANSPIRATION:    0.000000                    33.91758    
                                MASS STORAGE (SOLUTE):    8269.577                   -7457371.    
                            ---------------------------------------------------------------------------
                                              [TOTAL]:    7458082.       mg          -7457337.       mg

                                                          NET (IN - OUT):    744.5000    
                                                   DISCREPANCY (PERCENT):   0.9982958E-02



 >>>>>>>>>>>>>>>>>>>>>>>>>>>>>>>>>>>>>>>>>>>>>>>>>>>>>>>FOR COMPONENT NO. 03<<<<<<<<<<<<<<<<<<<<<<<<<<<<<<<<<<<<<<<<<<<<<<<<<<<<<<<


                                            -------------------------------------------
                                                      TRANSPORT STEP NO.    2
                                            -------------------------------------------

 TOTAL ELAPSED TIME SINCE BEGINNING OF SIMULATION =   6400.000       d
 .....................................................................

                     CUMMULATIVE MASS BUDGETS AT END OF TRANSPORT STEP    2, TIME STEP    6, STRESS PERIOD    3
                     ------------------------------------------------------------------------------------------

                                                             IN                           OUT
                                                      ----------------             ----------------
                               CONSTANT CONCENTRATION:    0.000000                    0.000000    
                                        CONSTANT HEAD:    0.000000                  -0.5268339E-03
                                             RECHARGE:    272772.0                    0.000000    
                                   EVAPOTRANSPIRATION:    0.000000                    1.080569    
                                MASS STORAGE (SOLUTE):    100.0411                   -272857.7    
                            ---------------------------------------------------------------------------
                                              [TOTAL]:    272872.0       mg          -272856.6       mg

                                                          NET (IN - OUT):    15.43750    
                                                   DISCREPANCY (PERCENT):   0.5657574E-02



 >>>>>>>>>>>>>>>>>>>>>>>>>>>>>>>>>>>>>>>>>>>>>>>>>>>>>>>FOR COMPONENT NO. 04<<<<<<<<<<<<<<<<<<<<<<<<<<<<<<<<<<<<<<<<<<<<<<<<<<<<<<<


                                            -------------------------------------------
                                                      TRANSPORT STEP NO.    2
                                            -------------------------------------------

 TOTAL ELAPSED TIME SINCE BEGINNING OF SIMULATION =   6400.000       d
 .....................................................................

                     CUMMULATIVE MASS BUDGETS AT END OF TRANSPORT STEP    2, TIME STEP    6, STRESS PERIOD    3
                     ------------------------------------------------------------------------------------------

                                                             IN                           OUT
                                                      ----------------             ----------------
                               CONSTANT CONCENTRATION:    0.000000                    0.000000    
                                        CONSTANT HEAD:    0.000000                  -0.4336099E-17
                                             RECHARGE:    49831.27                    0.000000    
                                   EVAPOTRANSPIRATION:    0.000000                   0.5484604    
                                MASS STORAGE (SOLUTE):    144.2145                   -49978.11    
                            ---------------------------------------------------------------------------
                                              [TOTAL]:    49975.49       mg          -49977.56       mg

                                                          NET (IN - OUT):   -2.074219    
                                                   DISCREPANCY (PERCENT):  -0.4150386E-02


                                          ================================================
                                                         TIME STEP NO.  007
                                          ================================================

 FROM TIME =   6400.0     TO    7300.0    



     1 CALLS TO GCG PACKAGE FOR TRANSPORT TIME STEP   1 IN FLOW TIME STEP   7 STRESS PERIOD   3
    16 TOTAL ITERATIONS


     1 CALLS TO GCG PACKAGE FOR TRANSPORT TIME STEP   1 IN FLOW TIME STEP   7 STRESS PERIOD   3
    16 TOTAL ITERATIONS


     1 CALLS TO GCG PACKAGE FOR TRANSPORT TIME STEP   1 IN FLOW TIME STEP   7 STRESS PERIOD   3
    15 TOTAL ITERATIONS


     1 CALLS TO GCG PACKAGE FOR TRANSPORT TIME STEP   1 IN FLOW TIME STEP   7 STRESS PERIOD   3
    16 TOTAL ITERATIONS



 >>>>>>>>>>>>>>>>>>>>>>>>>>>>>>>>>>>>>>>>>>>>>>>>>>>>>>>FOR COMPONENT NO. 01<<<<<<<<<<<<<<<<<<<<<<<<<<<<<<<<<<<<<<<<<<<<<<<<<<<<<<<


                                            -------------------------------------------
                                                      TRANSPORT STEP NO.    1
                                            -------------------------------------------

 TOTAL ELAPSED TIME SINCE BEGINNING OF SIMULATION =   6961.539       d
 .....................................................................

                     CUMMULATIVE MASS BUDGETS AT END OF TRANSPORT STEP    1, TIME STEP    7, STRESS PERIOD    3
                     ------------------------------------------------------------------------------------------

                                                             IN                           OUT
                                                      ----------------             ----------------
                               CONSTANT CONCENTRATION:    0.000000                    0.000000    
                                        CONSTANT HEAD:    0.000000                  -0.2735244    
                                             RECHARGE:   0.8314590E+08                0.000000    
                                   EVAPOTRANSPIRATION:    0.000000                    400.3007    
                                MASS STORAGE (SOLUTE):    91271.54                  -0.8322913E+08
                            ---------------------------------------------------------------------------
                                              [TOTAL]:   0.8323718E+08   mg         -0.8322873E+08   mg

                                                          NET (IN - OUT):    8448.000    
                                                   DISCREPANCY (PERCENT):   0.1014983E-01



 >>>>>>>>>>>>>>>>>>>>>>>>>>>>>>>>>>>>>>>>>>>>>>>>>>>>>>>FOR COMPONENT NO. 02<<<<<<<<<<<<<<<<<<<<<<<<<<<<<<<<<<<<<<<<<<<<<<<<<<<<<<<


                                            -------------------------------------------
                                                      TRANSPORT STEP NO.    1
                                            -------------------------------------------

 TOTAL ELAPSED TIME SINCE BEGINNING OF SIMULATION =   6961.539       d
 .....................................................................

                     CUMMULATIVE MASS BUDGETS AT END OF TRANSPORT STEP    1, TIME STEP    7, STRESS PERIOD    3
                     ------------------------------------------------------------------------------------------

                                                             IN                           OUT
                                                      ----------------             ----------------
                               CONSTANT CONCENTRATION:    0.000000                    0.000000    
                                        CONSTANT HEAD:    0.000000                  -0.2735285E-01
                                             RECHARGE:    8103460.                    0.000000    
                                   EVAPOTRANSPIRATION:    0.000000                    39.34129    
                                MASS STORAGE (SOLUTE):    8327.550                   -8110967.    
                            ---------------------------------------------------------------------------
                                              [TOTAL]:    8111788.       mg          -8110928.       mg

                                                          NET (IN - OUT):    860.5000    
                                                   DISCREPANCY (PERCENT):   0.1060858E-01



 >>>>>>>>>>>>>>>>>>>>>>>>>>>>>>>>>>>>>>>>>>>>>>>>>>>>>>>FOR COMPONENT NO. 03<<<<<<<<<<<<<<<<<<<<<<<<<<<<<<<<<<<<<<<<<<<<<<<<<<<<<<<


                                            -------------------------------------------
                                                      TRANSPORT STEP NO.    1
                                            -------------------------------------------

 TOTAL ELAPSED TIME SINCE BEGINNING OF SIMULATION =   6961.539       d
 .....................................................................

                     CUMMULATIVE MASS BUDGETS AT END OF TRANSPORT STEP    1, TIME STEP    7, STRESS PERIOD    3
                     ------------------------------------------------------------------------------------------

                                                             IN                           OUT
                                                      ----------------             ----------------
                               CONSTANT CONCENTRATION:    0.000000                    0.000000    
                                        CONSTANT HEAD:    0.000000                  -0.1367113E-02
                                             RECHARGE:    296705.1                    0.000000    
                                   EVAPOTRANSPIRATION:    0.000000                    1.247512    
                                MASS STORAGE (SOLUTE):    100.4285                   -296789.0    
                            ---------------------------------------------------------------------------
                                              [TOTAL]:    296805.6       mg          -296787.7       mg

                                                          NET (IN - OUT):    17.84375    
                                                   DISCREPANCY (PERCENT):   0.6012113E-02



 >>>>>>>>>>>>>>>>>>>>>>>>>>>>>>>>>>>>>>>>>>>>>>>>>>>>>>>FOR COMPONENT NO. 04<<<<<<<<<<<<<<<<<<<<<<<<<<<<<<<<<<<<<<<<<<<<<<<<<<<<<<<


                                            -------------------------------------------
                                                      TRANSPORT STEP NO.    1
                                            -------------------------------------------

 TOTAL ELAPSED TIME SINCE BEGINNING OF SIMULATION =   6961.539       d
 .....................................................................

                     CUMMULATIVE MASS BUDGETS AT END OF TRANSPORT STEP    1, TIME STEP    7, STRESS PERIOD    3
                     ------------------------------------------------------------------------------------------

                                                             IN                           OUT
                                                      ----------------             ----------------
                               CONSTANT CONCENTRATION:    0.000000                    0.000000    
                                        CONSTANT HEAD:    0.000000                  -0.2927304E-16
                                             RECHARGE:    54203.49                    0.000000    
                                   EVAPOTRANSPIRATION:    0.000000                   0.6789428    
                                MASS STORAGE (SOLUTE):    145.3748                   -54351.75    
                            ---------------------------------------------------------------------------
                                              [TOTAL]:    54348.87       mg          -54351.07       mg

                                                          NET (IN - OUT):   -2.199219    
                                                   DISCREPANCY (PERCENT):  -0.4046403E-02
     1 CALLS TO GCG PACKAGE FOR TRANSPORT TIME STEP   2 IN FLOW TIME STEP   7 STRESS PERIOD   3
    13 TOTAL ITERATIONS
  MAXIMUM CONCENTRATION CHANGES FOR EACH ITERATION:
  MAX. CHANGE LAYER,ROW,COL MAX. CHANGE LAYER,ROW,COL MAX. CHANGE LAYER,ROW,COL MAX. CHANGE LAYER,ROW,COL MAX. CHANGE LAYER,ROW,COL
 ------------------------------------------------------------------------------------------------------------------------------------
   0.1879     (  1,127,180)  0.1725     (  1,128,180)  0.8237E-01 (  1,129,180)  0.3488E-01 (  1,129,183)  0.2332E-01 (  1,128,183)
   0.1024E-01 (  1,128,185)  0.5254E-02 (  1,127,185)  0.2474E-02 (  1,126,185)  0.9788E-03 (  1,129,184)  0.5268E-03 (  1,128,185)
   0.2461E-03 (  1,128,184)  0.1365E-03 (  1,129,184)  0.8446E-04 (  1,130,184)
     1 CALLS TO GCG PACKAGE FOR TRANSPORT TIME STEP   2 IN FLOW TIME STEP   7 STRESS PERIOD   3
    13 TOTAL ITERATIONS
  MAXIMUM CONCENTRATION CHANGES FOR EACH ITERATION:
  MAX. CHANGE LAYER,ROW,COL MAX. CHANGE LAYER,ROW,COL MAX. CHANGE LAYER,ROW,COL MAX. CHANGE LAYER,ROW,COL MAX. CHANGE LAYER,ROW,COL
 ------------------------------------------------------------------------------------------------------------------------------------
   0.1883     (  1,127,180)  0.1730     (  1,128,180)  0.8232E-01 (  1,129,180)  0.3504E-01 (  1,129,183)  0.2325E-01 (  1,128,183)
   0.1011E-01 (  1,127,183)  0.5237E-02 (  1,127,185)  0.2474E-02 (  1,126,185)  0.9792E-03 (  1,129,184)  0.5350E-03 (  1,128,185)
   0.2414E-03 (  1,128,184)  0.1352E-03 (  1,129,184)  0.8404E-04 (  1,130,184)
     1 CALLS TO GCG PACKAGE FOR TRANSPORT TIME STEP   2 IN FLOW TIME STEP   7 STRESS PERIOD   3
    12 TOTAL ITERATIONS
  MAXIMUM CONCENTRATION CHANGES FOR EACH ITERATION:
  MAX. CHANGE LAYER,ROW,COL MAX. CHANGE LAYER,ROW,COL MAX. CHANGE LAYER,ROW,COL MAX. CHANGE LAYER,ROW,COL MAX. CHANGE LAYER,ROW,COL
 ------------------------------------------------------------------------------------------------------------------------------------
   0.8472E-01 (  1, 79, 91)  0.2676E-01 (  1, 39, 89)  0.2278E-01 (  1, 79, 92)  0.1148E-01 (  1, 41, 89)  0.5780E-02 (  1, 79, 92)
   0.3011E-02 (  1, 78, 92)  0.1262E-02 (  1, 70, 77)  0.7432E-03 (  1, 78, 92)  0.3688E-03 (  1, 40,114)  0.1768E-03 (  1, 40, 91)
   0.1101E-03 (  1, 41,113)  0.4923E-04 (  1, 40,115)
     1 CALLS TO GCG PACKAGE FOR TRANSPORT TIME STEP   2 IN FLOW TIME STEP   7 STRESS PERIOD   3
    13 TOTAL ITERATIONS
  MAXIMUM CONCENTRATION CHANGES FOR EACH ITERATION:
  MAX. CHANGE LAYER,ROW,COL MAX. CHANGE LAYER,ROW,COL MAX. CHANGE LAYER,ROW,COL MAX. CHANGE LAYER,ROW,COL MAX. CHANGE LAYER,ROW,COL
 ------------------------------------------------------------------------------------------------------------------------------------
   0.1833     (  1,127,180)  0.1673     (  1,128,180)  0.8064E-01 (  1,129,180)  0.3478E-01 (  1,129,183)  0.2443E-01 (  1,128,183)
   0.1098E-01 (  1,128,182)  0.5206E-02 (  1,127,185)  0.2529E-02 (  1,126,185)  0.9531E-03 (  1,125,184)  0.5972E-03 (  1,127,179)
   0.2555E-03 (  1,128,180)  0.1286E-03 (  1,127,180)  0.7439E-04 (  1,130,184)



 >>>>>>>>>>>>>>>>>>>>>>>>>>>>>>>>>>>>>>>>>>>>>>>>>>>>>>>FOR COMPONENT NO. 01<<<<<<<<<<<<<<<<<<<<<<<<<<<<<<<<<<<<<<<<<<<<<<<<<<<<<<<


                                            -------------------------------------------
                                                      TRANSPORT STEP NO.    2
                                            -------------------------------------------

 TOTAL ELAPSED TIME SINCE BEGINNING OF SIMULATION =   7300.000       d
 .....................................................................

                     CUMMULATIVE MASS BUDGETS AT END OF TRANSPORT STEP    2, TIME STEP    7, STRESS PERIOD    3
                     ------------------------------------------------------------------------------------------

                                                             IN                           OUT
                                                      ----------------             ----------------
                               CONSTANT CONCENTRATION:    0.000000                    0.000000    
                                        CONSTANT HEAD:    0.000000                  -0.4380090    
                                             RECHARGE:   0.8718835E+08                0.000000    
                                   EVAPOTRANSPIRATION:    0.000000                    442.5855    
                                MASS STORAGE (SOLUTE):    124638.7                  -0.8730479E+08
                            ---------------------------------------------------------------------------
                                              [TOTAL]:   0.8731299E+08   mg         -0.8730435E+08   mg

                                                          NET (IN - OUT):    8640.000    
                                                   DISCREPANCY (PERCENT):   0.9895924E-02



 >>>>>>>>>>>>>>>>>>>>>>>>>>>>>>>>>>>>>>>>>>>>>>>>>>>>>>>FOR COMPONENT NO. 02<<<<<<<<<<<<<<<<<<<<<<<<<<<<<<<<<<<<<<<<<<<<<<<<<<<<<<<


                                            -------------------------------------------
                                                      TRANSPORT STEP NO.    2
                                            -------------------------------------------

 TOTAL ELAPSED TIME SINCE BEGINNING OF SIMULATION =   7300.000       d
 .....................................................................

                     CUMMULATIVE MASS BUDGETS AT END OF TRANSPORT STEP    2, TIME STEP    7, STRESS PERIOD    3
                     ------------------------------------------------------------------------------------------

                                                             IN                           OUT
                                                      ----------------             ----------------
                               CONSTANT CONCENTRATION:    0.000000                    0.000000    
                                        CONSTANT HEAD:    0.000000                  -0.4380167E-01
                                             RECHARGE:    8497442.                    0.000000    
                                   EVAPOTRANSPIRATION:    0.000000                    43.28256    
                                MASS STORAGE (SOLUTE):    11306.31                   -8507906.    
                            ---------------------------------------------------------------------------
                                              [TOTAL]:    8508748.       mg          -8507863.       mg

                                                          NET (IN - OUT):    885.0000    
                                                   DISCREPANCY (PERCENT):   0.1040160E-01



 >>>>>>>>>>>>>>>>>>>>>>>>>>>>>>>>>>>>>>>>>>>>>>>>>>>>>>>FOR COMPONENT NO. 03<<<<<<<<<<<<<<<<<<<<<<<<<<<<<<<<<<<<<<<<<<<<<<<<<<<<<<<


                                            -------------------------------------------
                                                      TRANSPORT STEP NO.    2
                                            -------------------------------------------

 TOTAL ELAPSED TIME SINCE BEGINNING OF SIMULATION =   7300.000       d
 .....................................................................

                     CUMMULATIVE MASS BUDGETS AT END OF TRANSPORT STEP    2, TIME STEP    7, STRESS PERIOD    3
                     ------------------------------------------------------------------------------------------

                                                             IN                           OUT
                                                      ----------------             ----------------
                               CONSTANT CONCENTRATION:    0.000000                    0.000000    
                                        CONSTANT HEAD:    0.000000                  -0.2189764E-02
                                             RECHARGE:    311130.6                    0.000000    
                                   EVAPOTRANSPIRATION:    0.000000                    1.365384    
                                MASS STORAGE (SOLUTE):    101.1337                   -311214.2    
                            ---------------------------------------------------------------------------
                                              [TOTAL]:    311231.7       mg          -311212.8       mg

                                                          NET (IN - OUT):    18.84375    
                                                   DISCREPANCY (PERCENT):   0.6054757E-02



 >>>>>>>>>>>>>>>>>>>>>>>>>>>>>>>>>>>>>>>>>>>>>>>>>>>>>>>FOR COMPONENT NO. 04<<<<<<<<<<<<<<<<<<<<<<<<<<<<<<<<<<<<<<<<<<<<<<<<<<<<<<<


                                            -------------------------------------------
                                                      TRANSPORT STEP NO.    2
                                            -------------------------------------------

 TOTAL ELAPSED TIME SINCE BEGINNING OF SIMULATION =   7300.000       d
 .....................................................................

                     CUMMULATIVE MASS BUDGETS AT END OF TRANSPORT STEP    2, TIME STEP    7, STRESS PERIOD    3
                     ------------------------------------------------------------------------------------------

                                                             IN                           OUT
                                                      ----------------             ----------------
                               CONSTANT CONCENTRATION:    0.000000                    0.000000    
                                        CONSTANT HEAD:    0.000000                  -0.6406648E-16
                                             RECHARGE:    56838.80                    0.000000    
                                   EVAPOTRANSPIRATION:    0.000000                   0.7713956    
                                MASS STORAGE (SOLUTE):    214.4684                   -57056.43    
                            ---------------------------------------------------------------------------
                                              [TOTAL]:    57053.27       mg          -57055.66       mg

                                                          NET (IN - OUT):   -2.398438    
                                                   DISCREPANCY (PERCENT):  -0.4203768E-02


                                          ================================================
                                                         TIME STEP NO.  008
                                          ================================================

 FROM TIME =   7300.0     TO    8200.0    



     1 CALLS TO GCG PACKAGE FOR TRANSPORT TIME STEP   1 IN FLOW TIME STEP   8 STRESS PERIOD   3
    16 TOTAL ITERATIONS


     1 CALLS TO GCG PACKAGE FOR TRANSPORT TIME STEP   1 IN FLOW TIME STEP   8 STRESS PERIOD   3
    16 TOTAL ITERATIONS


     1 CALLS TO GCG PACKAGE FOR TRANSPORT TIME STEP   1 IN FLOW TIME STEP   8 STRESS PERIOD   3
    15 TOTAL ITERATIONS


     1 CALLS TO GCG PACKAGE FOR TRANSPORT TIME STEP   1 IN FLOW TIME STEP   8 STRESS PERIOD   3
    16 TOTAL ITERATIONS



 >>>>>>>>>>>>>>>>>>>>>>>>>>>>>>>>>>>>>>>>>>>>>>>>>>>>>>>FOR COMPONENT NO. 01<<<<<<<<<<<<<<<<<<<<<<<<<<<<<<<<<<<<<<<<<<<<<<<<<<<<<<<


                                            -------------------------------------------
                                                      TRANSPORT STEP NO.    1
                                            -------------------------------------------

 TOTAL ELAPSED TIME SINCE BEGINNING OF SIMULATION =   7861.539       d
 .....................................................................

                     CUMMULATIVE MASS BUDGETS AT END OF TRANSPORT STEP    1, TIME STEP    8, STRESS PERIOD    3
                     ------------------------------------------------------------------------------------------

                                                             IN                           OUT
                                                      ----------------             ----------------
                               CONSTANT CONCENTRATION:    0.000000                    0.000000    
                                        CONSTANT HEAD:    0.000000                   -1.003723    
                                             RECHARGE:   0.9389515E+08                0.000000    
                                   EVAPOTRANSPIRATION:    0.000000                    513.9333    
                                MASS STORAGE (SOLUTE):    125894.5                  -0.9401176E+08
                            ---------------------------------------------------------------------------
                                              [TOTAL]:   0.9402105E+08   mg         -0.9401125E+08   mg

                                                          NET (IN - OUT):    9800.000    
                                                   DISCREPANCY (PERCENT):   0.1042374E-01



 >>>>>>>>>>>>>>>>>>>>>>>>>>>>>>>>>>>>>>>>>>>>>>>>>>>>>>>FOR COMPONENT NO. 02<<<<<<<<<<<<<<<<<<<<<<<<<<<<<<<<<<<<<<<<<<<<<<<<<<<<<<<


                                            -------------------------------------------
                                                      TRANSPORT STEP NO.    1
                                            -------------------------------------------

 TOTAL ELAPSED TIME SINCE BEGINNING OF SIMULATION =   7861.539       d
 .....................................................................

                     CUMMULATIVE MASS BUDGETS AT END OF TRANSPORT STEP    1, TIME STEP    8, STRESS PERIOD    3
                     ------------------------------------------------------------------------------------------

                                                             IN                           OUT
                                                      ----------------             ----------------
                               CONSTANT CONCENTRATION:    0.000000                    0.000000    
                                        CONSTANT HEAD:    0.000000                  -0.1003744    
                                             RECHARGE:    9151090.                    0.000000    
                                   EVAPOTRANSPIRATION:    0.000000                    49.84452    
                                MASS STORAGE (SOLUTE):    11415.32                   -9161551.    
                            ---------------------------------------------------------------------------
                                              [TOTAL]:    9162505.       mg          -9161501.       mg

                                                          NET (IN - OUT):    1004.000    
                                                   DISCREPANCY (PERCENT):   0.1095830E-01



 >>>>>>>>>>>>>>>>>>>>>>>>>>>>>>>>>>>>>>>>>>>>>>>>>>>>>>>FOR COMPONENT NO. 03<<<<<<<<<<<<<<<<<<<<<<<<<<<<<<<<<<<<<<<<<<<<<<<<<<<<<<<


                                            -------------------------------------------
                                                      TRANSPORT STEP NO.    1
                                            -------------------------------------------

 TOTAL ELAPSED TIME SINCE BEGINNING OF SIMULATION =   7861.539       d
 .....................................................................

                     CUMMULATIVE MASS BUDGETS AT END OF TRANSPORT STEP    1, TIME STEP    8, STRESS PERIOD    3
                     ------------------------------------------------------------------------------------------

                                                             IN                           OUT
                                                      ----------------             ----------------
                               CONSTANT CONCENTRATION:    0.000000                    0.000000    
                                        CONSTANT HEAD:    0.000000                  -0.5019951E-02
                                             RECHARGE:    335063.7                    0.000000    
                                   EVAPOTRANSPIRATION:    0.000000                    1.561661    
                                MASS STORAGE (SOLUTE):    101.5704                   -335145.3    
                            ---------------------------------------------------------------------------
                                              [TOTAL]:    335165.2       mg          -335143.8       mg

                                                          NET (IN - OUT):    21.50000    
                                                   DISCREPANCY (PERCENT):   0.6414952E-02



 >>>>>>>>>>>>>>>>>>>>>>>>>>>>>>>>>>>>>>>>>>>>>>>>>>>>>>>FOR COMPONENT NO. 04<<<<<<<<<<<<<<<<<<<<<<<<<<<<<<<<<<<<<<<<<<<<<<<<<<<<<<<


                                            -------------------------------------------
                                                      TRANSPORT STEP NO.    1
                                            -------------------------------------------

 TOTAL ELAPSED TIME SINCE BEGINNING OF SIMULATION =   7861.539       d
 .....................................................................

                     CUMMULATIVE MASS BUDGETS AT END OF TRANSPORT STEP    1, TIME STEP    8, STRESS PERIOD    3
                     ------------------------------------------------------------------------------------------

                                                             IN                           OUT
                                                      ----------------             ----------------
                               CONSTANT CONCENTRATION:    0.000000                    0.000000    
                                        CONSTANT HEAD:    0.000000                  -0.3464275E-15
                                             RECHARGE:    61211.02                    0.000000    
                                   EVAPOTRANSPIRATION:    0.000000                   0.9238926    
                                MASS STORAGE (SOLUTE):    216.6898                   -61431.13    
                            ---------------------------------------------------------------------------
                                              [TOTAL]:    61427.71       mg          -61430.20       mg

                                                          NET (IN - OUT):   -2.496094    
                                                   DISCREPANCY (PERCENT):  -0.4063383E-02
     1 CALLS TO GCG PACKAGE FOR TRANSPORT TIME STEP   2 IN FLOW TIME STEP   8 STRESS PERIOD   3
    13 TOTAL ITERATIONS
  MAXIMUM CONCENTRATION CHANGES FOR EACH ITERATION:
  MAX. CHANGE LAYER,ROW,COL MAX. CHANGE LAYER,ROW,COL MAX. CHANGE LAYER,ROW,COL MAX. CHANGE LAYER,ROW,COL MAX. CHANGE LAYER,ROW,COL
 ------------------------------------------------------------------------------------------------------------------------------------
   0.1868     (  1,127,180)  0.1714     (  1,128,180)  0.8195E-01 (  1,129,180)  0.3440E-01 (  1,129,183)  0.2314E-01 (  1,128,183)
   0.1019E-01 (  1,128,185)  0.5225E-02 (  1,127,185)  0.2466E-02 (  1,126,185)  0.9541E-03 (  1,129,184)  0.5163E-03 (  1,128,185)
   0.2432E-03 (  1,128,184)  0.1351E-03 (  1,129,184)  0.8345E-04 (  1,130,184)
     1 CALLS TO GCG PACKAGE FOR TRANSPORT TIME STEP   2 IN FLOW TIME STEP   8 STRESS PERIOD   3
    13 TOTAL ITERATIONS
  MAXIMUM CONCENTRATION CHANGES FOR EACH ITERATION:
  MAX. CHANGE LAYER,ROW,COL MAX. CHANGE LAYER,ROW,COL MAX. CHANGE LAYER,ROW,COL MAX. CHANGE LAYER,ROW,COL MAX. CHANGE LAYER,ROW,COL
 ------------------------------------------------------------------------------------------------------------------------------------
   0.1872     (  1,127,180)  0.1719     (  1,128,180)  0.8189E-01 (  1,129,180)  0.3456E-01 (  1,129,183)  0.2308E-01 (  1,128,183)
   0.1007E-01 (  1,128,185)  0.5209E-02 (  1,127,185)  0.2467E-02 (  1,126,185)  0.9534E-03 (  1,129,184)  0.5242E-03 (  1,128,185)
   0.2385E-03 (  1,128,184)  0.1338E-03 (  1,129,184)  0.8297E-04 (  1,130,184)
     1 CALLS TO GCG PACKAGE FOR TRANSPORT TIME STEP   2 IN FLOW TIME STEP   8 STRESS PERIOD   3
    12 TOTAL ITERATIONS
  MAXIMUM CONCENTRATION CHANGES FOR EACH ITERATION:
  MAX. CHANGE LAYER,ROW,COL MAX. CHANGE LAYER,ROW,COL MAX. CHANGE LAYER,ROW,COL MAX. CHANGE LAYER,ROW,COL MAX. CHANGE LAYER,ROW,COL
 ------------------------------------------------------------------------------------------------------------------------------------
   0.7768E-01 (  1, 79, 91)  0.2524E-01 (  1, 39, 89)  0.2090E-01 (  1, 79, 92)  0.1073E-01 (  1, 41, 89)  0.5353E-02 (  1, 40, 89)
   0.2818E-02 (  1, 78, 92)  0.1190E-02 (  1, 70, 77)  0.6634E-03 (  1, 78, 92)  0.3366E-03 (  1, 40,114)  0.1627E-03 (  1, 40, 91)
   0.1017E-03 (  1, 41,113)  0.4464E-04 (  1, 40,115)
     1 CALLS TO GCG PACKAGE FOR TRANSPORT TIME STEP   2 IN FLOW TIME STEP   8 STRESS PERIOD   3
    13 TOTAL ITERATIONS
  MAXIMUM CONCENTRATION CHANGES FOR EACH ITERATION:
  MAX. CHANGE LAYER,ROW,COL MAX. CHANGE LAYER,ROW,COL MAX. CHANGE LAYER,ROW,COL MAX. CHANGE LAYER,ROW,COL MAX. CHANGE LAYER,ROW,COL
 ------------------------------------------------------------------------------------------------------------------------------------
   0.1825     (  1,127,180)  0.1666     (  1,128,180)  0.8033E-01 (  1,129,180)  0.3433E-01 (  1,129,183)  0.2414E-01 (  1,128,183)
   0.1093E-01 (  1,128,182)  0.5182E-02 (  1,127,185)  0.2517E-02 (  1,126,185)  0.9403E-03 (  1,125,184)  0.5870E-03 (  1,127,179)
   0.2537E-03 (  1,128,180)  0.1286E-03 (  1,127,180)  0.7385E-04 (  1,130,184)



 >>>>>>>>>>>>>>>>>>>>>>>>>>>>>>>>>>>>>>>>>>>>>>>>>>>>>>>FOR COMPONENT NO. 01<<<<<<<<<<<<<<<<<<<<<<<<<<<<<<<<<<<<<<<<<<<<<<<<<<<<<<<


                                            -------------------------------------------
                                                      TRANSPORT STEP NO.    2
                                            -------------------------------------------

 TOTAL ELAPSED TIME SINCE BEGINNING OF SIMULATION =   8200.000       d
 .....................................................................

                     CUMMULATIVE MASS BUDGETS AT END OF TRANSPORT STEP    2, TIME STEP    8, STRESS PERIOD    3
                     ------------------------------------------------------------------------------------------

                                                             IN                           OUT
                                                      ----------------             ----------------
                               CONSTANT CONCENTRATION:    0.000000                    0.000000    
                                        CONSTANT HEAD:    0.000000                   -1.524963    
                                             RECHARGE:   0.9793760E+08                0.000000    
                                   EVAPOTRANSPIRATION:    0.000000                    563.4789    
                                MASS STORAGE (SOLUTE):    164667.4                  -0.9809280E+08
                            ---------------------------------------------------------------------------
                                              [TOTAL]:   0.9810226E+08   mg         -0.9809224E+08   mg

                                                          NET (IN - OUT):    10024.00    
                                                   DISCREPANCY (PERCENT):   0.1021843E-01



 >>>>>>>>>>>>>>>>>>>>>>>>>>>>>>>>>>>>>>>>>>>>>>>>>>>>>>>FOR COMPONENT NO. 02<<<<<<<<<<<<<<<<<<<<<<<<<<<<<<<<<<<<<<<<<<<<<<<<<<<<<<<


                                            -------------------------------------------
                                                      TRANSPORT STEP NO.    2
                                            -------------------------------------------

 TOTAL ELAPSED TIME SINCE BEGINNING OF SIMULATION =   8200.000       d
 .....................................................................

                     CUMMULATIVE MASS BUDGETS AT END OF TRANSPORT STEP    2, TIME STEP    8, STRESS PERIOD    3
                     ------------------------------------------------------------------------------------------

                                                             IN                           OUT
                                                      ----------------             ----------------
                               CONSTANT CONCENTRATION:    0.000000                    0.000000    
                                        CONSTANT HEAD:    0.000000                  -0.1524996    
                                             RECHARGE:    9545071.                    0.000000    
                                   EVAPOTRANSPIRATION:    0.000000                    54.39431    
                                MASS STORAGE (SOLUTE):    14883.68                   -9558979.    
                            ---------------------------------------------------------------------------
                                              [TOTAL]:    9559955.       mg          -9558925.       mg

                                                          NET (IN - OUT):    1030.000    
                                                   DISCREPANCY (PERCENT):   0.1077469E-01



 >>>>>>>>>>>>>>>>>>>>>>>>>>>>>>>>>>>>>>>>>>>>>>>>>>>>>>>FOR COMPONENT NO. 03<<<<<<<<<<<<<<<<<<<<<<<<<<<<<<<<<<<<<<<<<<<<<<<<<<<<<<<


                                            -------------------------------------------
                                                      TRANSPORT STEP NO.    2
                                            -------------------------------------------

 TOTAL ELAPSED TIME SINCE BEGINNING OF SIMULATION =   8200.000       d
 .....................................................................

                     CUMMULATIVE MASS BUDGETS AT END OF TRANSPORT STEP    2, TIME STEP    8, STRESS PERIOD    3
                     ------------------------------------------------------------------------------------------

                                                             IN                           OUT
                                                      ----------------             ----------------
                               CONSTANT CONCENTRATION:    0.000000                    0.000000    
                                        CONSTANT HEAD:    0.000000                  -0.7627977E-02
                                             RECHARGE:    349489.1                    0.000000    
                                   EVAPOTRANSPIRATION:    0.000000                    1.697789    
                                MASS STORAGE (SOLUTE):    102.3170                   -349570.5    
                            ---------------------------------------------------------------------------
                                              [TOTAL]:    349591.4       mg          -349568.8       mg

                                                          NET (IN - OUT):    22.62500    
                                                   DISCREPANCY (PERCENT):   0.6472050E-02



 >>>>>>>>>>>>>>>>>>>>>>>>>>>>>>>>>>>>>>>>>>>>>>>>>>>>>>>FOR COMPONENT NO. 04<<<<<<<<<<<<<<<<<<<<<<<<<<<<<<<<<<<<<<<<<<<<<<<<<<<<<<<


                                            -------------------------------------------
                                                      TRANSPORT STEP NO.    2
                                            -------------------------------------------

 TOTAL ELAPSED TIME SINCE BEGINNING OF SIMULATION =   8200.000       d
 .....................................................................

                     CUMMULATIVE MASS BUDGETS AT END OF TRANSPORT STEP    2, TIME STEP    8, STRESS PERIOD    3
                     ------------------------------------------------------------------------------------------

                                                             IN                           OUT
                                                      ----------------             ----------------
                               CONSTANT CONCENTRATION:    0.000000                    0.000000    
                                        CONSTANT HEAD:    0.000000                  -0.7133736E-15
                                             RECHARGE:    63846.32                    0.000000    
                                   EVAPOTRANSPIRATION:    0.000000                    1.026255    
                                MASS STORAGE (SOLUTE):    297.7462                   -64147.79    
                            ---------------------------------------------------------------------------
                                              [TOTAL]:    64144.07       mg          -64146.76       mg

                                                          NET (IN - OUT):   -2.691406    
                                                   DISCREPANCY (PERCENT):  -0.4195789E-02


                                          ================================================
                                                         TIME STEP NO.  009
                                          ================================================

 FROM TIME =   8200.0     TO    9100.0    



     1 CALLS TO GCG PACKAGE FOR TRANSPORT TIME STEP   1 IN FLOW TIME STEP   9 STRESS PERIOD   3
    16 TOTAL ITERATIONS


     1 CALLS TO GCG PACKAGE FOR TRANSPORT TIME STEP   1 IN FLOW TIME STEP   9 STRESS PERIOD   3
    16 TOTAL ITERATIONS


     1 CALLS TO GCG PACKAGE FOR TRANSPORT TIME STEP   1 IN FLOW TIME STEP   9 STRESS PERIOD   3
    15 TOTAL ITERATIONS


     1 CALLS TO GCG PACKAGE FOR TRANSPORT TIME STEP   1 IN FLOW TIME STEP   9 STRESS PERIOD   3
    16 TOTAL ITERATIONS



 >>>>>>>>>>>>>>>>>>>>>>>>>>>>>>>>>>>>>>>>>>>>>>>>>>>>>>>FOR COMPONENT NO. 01<<<<<<<<<<<<<<<<<<<<<<<<<<<<<<<<<<<<<<<<<<<<<<<<<<<<<<<


                                            -------------------------------------------
                                                      TRANSPORT STEP NO.    1
                                            -------------------------------------------

 TOTAL ELAPSED TIME SINCE BEGINNING OF SIMULATION =   8761.539       d
 .....................................................................

                     CUMMULATIVE MASS BUDGETS AT END OF TRANSPORT STEP    1, TIME STEP    9, STRESS PERIOD    3
                     ------------------------------------------------------------------------------------------

                                                             IN                           OUT
                                                      ----------------             ----------------
                               CONSTANT CONCENTRATION:    0.000000                    0.000000    
                                        CONSTANT HEAD:    0.000000                   -3.163197    
                                             RECHARGE:   0.1046444E+09                0.000000    
                                   EVAPOTRANSPIRATION:    0.000000                    647.5655    
                                MASS STORAGE (SOLUTE):    166688.2                  -0.1048005E+09
                            ---------------------------------------------------------------------------
                                              [TOTAL]:   0.1048111E+09   mg         -0.1047999E+09   mg

                                                          NET (IN - OUT):    11216.00    
                                                   DISCREPANCY (PERCENT):   0.1070173E-01



 >>>>>>>>>>>>>>>>>>>>>>>>>>>>>>>>>>>>>>>>>>>>>>>>>>>>>>>FOR COMPONENT NO. 02<<<<<<<<<<<<<<<<<<<<<<<<<<<<<<<<<<<<<<<<<<<<<<<<<<<<<<<


                                            -------------------------------------------
                                                      TRANSPORT STEP NO.    1
                                            -------------------------------------------

 TOTAL ELAPSED TIME SINCE BEGINNING OF SIMULATION =   8761.539       d
 .....................................................................

                     CUMMULATIVE MASS BUDGETS AT END OF TRANSPORT STEP    1, TIME STEP    9, STRESS PERIOD    3
                     ------------------------------------------------------------------------------------------

                                                             IN                           OUT
                                                      ----------------             ----------------
                               CONSTANT CONCENTRATION:    0.000000                    0.000000    
                                        CONSTANT HEAD:    0.000000                  -0.3163269    
                                             RECHARGE:   0.1019872E+08                0.000000    
                                   EVAPOTRANSPIRATION:    0.000000                    62.09610    
                                MASS STORAGE (SOLUTE):    15060.64                  -0.1021269E+08
                            ---------------------------------------------------------------------------
                                              [TOTAL]:   0.1021378E+08   mg         -0.1021263E+08   mg

                                                          NET (IN - OUT):    1154.000    
                                                   DISCREPANCY (PERCENT):   0.1129910E-01



 >>>>>>>>>>>>>>>>>>>>>>>>>>>>>>>>>>>>>>>>>>>>>>>>>>>>>>>FOR COMPONENT NO. 03<<<<<<<<<<<<<<<<<<<<<<<<<<<<<<<<<<<<<<<<<<<<<<<<<<<<<<<


                                            -------------------------------------------
                                                      TRANSPORT STEP NO.    1
                                            -------------------------------------------

 TOTAL ELAPSED TIME SINCE BEGINNING OF SIMULATION =   8761.539       d
 .....................................................................

                     CUMMULATIVE MASS BUDGETS AT END OF TRANSPORT STEP    1, TIME STEP    9, STRESS PERIOD    3
                     ------------------------------------------------------------------------------------------

                                                             IN                           OUT
                                                      ----------------             ----------------
                               CONSTANT CONCENTRATION:    0.000000                    0.000000    
                                        CONSTANT HEAD:    0.000000                  -0.1582626E-01
                                             RECHARGE:    373422.2                    0.000000    
                                   EVAPOTRANSPIRATION:    0.000000                    1.934099    
                                MASS STORAGE (SOLUTE):    102.8118                   -373501.5    
                            ---------------------------------------------------------------------------
                                              [TOTAL]:    373525.1       mg          -373499.6       mg

                                                          NET (IN - OUT):    25.50000    
                                                   DISCREPANCY (PERCENT):   0.6827084E-02



 >>>>>>>>>>>>>>>>>>>>>>>>>>>>>>>>>>>>>>>>>>>>>>>>>>>>>>>FOR COMPONENT NO. 04<<<<<<<<<<<<<<<<<<<<<<<<<<<<<<<<<<<<<<<<<<<<<<<<<<<<<<<


                                            -------------------------------------------
                                                      TRANSPORT STEP NO.    1
                                            -------------------------------------------

 TOTAL ELAPSED TIME SINCE BEGINNING OF SIMULATION =   8761.539       d
 .....................................................................

                     CUMMULATIVE MASS BUDGETS AT END OF TRANSPORT STEP    1, TIME STEP    9, STRESS PERIOD    3
                     ------------------------------------------------------------------------------------------

                                                             IN                           OUT
                                                      ----------------             ----------------
                               CONSTANT CONCENTRATION:    0.000000                    0.000000    
                                        CONSTANT HEAD:    0.000000                  -0.3246769E-14
                                             RECHARGE:    68218.54                    0.000000    
                                   EVAPOTRANSPIRATION:    0.000000                    1.196505    
                                MASS STORAGE (SOLUTE):    301.4994                   -68524.00    
                            ---------------------------------------------------------------------------
                                              [TOTAL]:    68520.04       mg          -68522.80       mg

                                                          NET (IN - OUT):   -2.765625    
                                                   DISCREPANCY (PERCENT):  -0.4036147E-02
     1 CALLS TO GCG PACKAGE FOR TRANSPORT TIME STEP   2 IN FLOW TIME STEP   9 STRESS PERIOD   3
    13 TOTAL ITERATIONS
  MAXIMUM CONCENTRATION CHANGES FOR EACH ITERATION:
  MAX. CHANGE LAYER,ROW,COL MAX. CHANGE LAYER,ROW,COL MAX. CHANGE LAYER,ROW,COL MAX. CHANGE LAYER,ROW,COL MAX. CHANGE LAYER,ROW,COL
 ------------------------------------------------------------------------------------------------------------------------------------
   0.1852     (  1,127,180)  0.1703     (  1,128,180)  0.8149E-01 (  1,129,180)  0.3400E-01 (  1,129,183)  0.2296E-01 (  1,128,183)
   0.1018E-01 (  1,128,185)  0.5209E-02 (  1,127,185)  0.2461E-02 (  1,126,185)  0.9291E-03 (  1,129,184)  0.5102E-03 (  1,128,185)
   0.2430E-03 (  1,128,184)  0.1349E-03 (  1,129,184)  0.8291E-04 (  1,130,184)
     1 CALLS TO GCG PACKAGE FOR TRANSPORT TIME STEP   2 IN FLOW TIME STEP   9 STRESS PERIOD   3
    13 TOTAL ITERATIONS
  MAXIMUM CONCENTRATION CHANGES FOR EACH ITERATION:
  MAX. CHANGE LAYER,ROW,COL MAX. CHANGE LAYER,ROW,COL MAX. CHANGE LAYER,ROW,COL MAX. CHANGE LAYER,ROW,COL MAX. CHANGE LAYER,ROW,COL
 ------------------------------------------------------------------------------------------------------------------------------------
   0.1856     (  1,127,180)  0.1708     (  1,128,180)  0.8143E-01 (  1,129,180)  0.3415E-01 (  1,129,183)  0.2291E-01 (  1,128,183)
   0.1006E-01 (  1,128,185)  0.5193E-02 (  1,127,185)  0.2462E-02 (  1,126,185)  0.9428E-03 (  1,128,186)  0.5182E-03 (  1,128,185)
   0.2385E-03 (  1,128,184)  0.1337E-03 (  1,129,184)  0.8243E-04 (  1,130,184)
     1 CALLS TO GCG PACKAGE FOR TRANSPORT TIME STEP   2 IN FLOW TIME STEP   9 STRESS PERIOD   3
    11 TOTAL ITERATIONS
  MAXIMUM CONCENTRATION CHANGES FOR EACH ITERATION:
  MAX. CHANGE LAYER,ROW,COL MAX. CHANGE LAYER,ROW,COL MAX. CHANGE LAYER,ROW,COL MAX. CHANGE LAYER,ROW,COL MAX. CHANGE LAYER,ROW,COL
 ------------------------------------------------------------------------------------------------------------------------------------
   0.7215E-01 (  1, 80,105)  0.2405E-01 (  1, 39, 89)  0.1939E-01 (  1, 79, 92)  0.1011E-01 (  1, 41, 89)  0.5091E-02 (  1, 40, 89)
   0.2660E-02 (  1, 78, 92)  0.1132E-02 (  1, 70, 77)  0.6010E-03 (  1, 78, 92)  0.3104E-03 (  1, 40,114)  0.1516E-03 (  1, 40, 91)
   0.9495E-04 (  1, 41,113)
     1 CALLS TO GCG PACKAGE FOR TRANSPORT TIME STEP   2 IN FLOW TIME STEP   9 STRESS PERIOD   3
    13 TOTAL ITERATIONS
  MAXIMUM CONCENTRATION CHANGES FOR EACH ITERATION:
  MAX. CHANGE LAYER,ROW,COL MAX. CHANGE LAYER,ROW,COL MAX. CHANGE LAYER,ROW,COL MAX. CHANGE LAYER,ROW,COL MAX. CHANGE LAYER,ROW,COL
 ------------------------------------------------------------------------------------------------------------------------------------
   0.1813     (  1,127,180)  0.1659     (  1,128,180)  0.7997E-01 (  1,129,180)  0.3395E-01 (  1,129,183)  0.2389E-01 (  1,128,183)
   0.1085E-01 (  1,128,182)  0.5170E-02 (  1,127,185)  0.2510E-02 (  1,126,185)  0.9274E-03 (  1,125,184)  0.5788E-03 (  1,127,179)
   0.2514E-03 (  1,128,180)  0.1279E-03 (  1,127,180)  0.7361E-04 (  1,130,184)



 >>>>>>>>>>>>>>>>>>>>>>>>>>>>>>>>>>>>>>>>>>>>>>>>>>>>>>>FOR COMPONENT NO. 01<<<<<<<<<<<<<<<<<<<<<<<<<<<<<<<<<<<<<<<<<<<<<<<<<<<<<<<


                                            -------------------------------------------
                                                      TRANSPORT STEP NO.    2
                                            -------------------------------------------

 TOTAL ELAPSED TIME SINCE BEGINNING OF SIMULATION =   9100.000       d
 .....................................................................

                     CUMMULATIVE MASS BUDGETS AT END OF TRANSPORT STEP    2, TIME STEP    9, STRESS PERIOD    3
                     ------------------------------------------------------------------------------------------

                                                             IN                           OUT
                                                      ----------------             ----------------
                               CONSTANT CONCENTRATION:    0.000000                    0.000000    
                                        CONSTANT HEAD:    0.000000                   -4.599426    
                                             RECHARGE:   0.1086868E+09                0.000000    
                                   EVAPOTRANSPIRATION:    0.000000                    705.0808    
                                MASS STORAGE (SOLUTE):    210587.4                  -0.1088867E+09
                            ---------------------------------------------------------------------------
                                              [TOTAL]:   0.1088974E+09   mg         -0.1088860E+09   mg

                                                          NET (IN - OUT):    11456.00    
                                                   DISCREPANCY (PERCENT):   0.1052054E-01



 >>>>>>>>>>>>>>>>>>>>>>>>>>>>>>>>>>>>>>>>>>>>>>>>>>>>>>>FOR COMPONENT NO. 02<<<<<<<<<<<<<<<<<<<<<<<<<<<<<<<<<<<<<<<<<<<<<<<<<<<<<<<


                                            -------------------------------------------
                                                      TRANSPORT STEP NO.    2
                                            -------------------------------------------

 TOTAL ELAPSED TIME SINCE BEGINNING OF SIMULATION =   9100.000       d
 .....................................................................

                     CUMMULATIVE MASS BUDGETS AT END OF TRANSPORT STEP    2, TIME STEP    9, STRESS PERIOD    3
                     ------------------------------------------------------------------------------------------

                                                             IN                           OUT
                                                      ----------------             ----------------
                               CONSTANT CONCENTRATION:    0.000000                    0.000000    
                                        CONSTANT HEAD:    0.000000                  -0.4599532    
                                             RECHARGE:   0.1059270E+08                0.000000    
                                   EVAPOTRANSPIRATION:    0.000000                    67.36090    
                                MASS STORAGE (SOLUTE):    18995.28                  -0.1061058E+08
                            ---------------------------------------------------------------------------
                                              [TOTAL]:   0.1061170E+08   mg         -0.1061051E+08   mg

                                                          NET (IN - OUT):    1183.000    
                                                   DISCREPANCY (PERCENT):   0.1114870E-01



 >>>>>>>>>>>>>>>>>>>>>>>>>>>>>>>>>>>>>>>>>>>>>>>>>>>>>>>FOR COMPONENT NO. 03<<<<<<<<<<<<<<<<<<<<<<<<<<<<<<<<<<<<<<<<<<<<<<<<<<<<<<<


                                            -------------------------------------------
                                                      TRANSPORT STEP NO.    2
                                            -------------------------------------------

 TOTAL ELAPSED TIME SINCE BEGINNING OF SIMULATION =   9100.000       d
 .....................................................................

                     CUMMULATIVE MASS BUDGETS AT END OF TRANSPORT STEP    2, TIME STEP    9, STRESS PERIOD    3
                     ------------------------------------------------------------------------------------------

                                                             IN                           OUT
                                                      ----------------             ----------------
                               CONSTANT CONCENTRATION:    0.000000                    0.000000    
                                        CONSTANT HEAD:    0.000000                  -0.2301359E-01
                                             RECHARGE:    387847.7                    0.000000    
                                   EVAPOTRANSPIRATION:    0.000000                    2.095067    
                                MASS STORAGE (SOLUTE):    103.5778                   -387925.8    
                            ---------------------------------------------------------------------------
                                              [TOTAL]:    387951.2       mg          -387923.7       mg

                                                          NET (IN - OUT):    27.53125    
                                                   DISCREPANCY (PERCENT):   0.7096827E-02



 >>>>>>>>>>>>>>>>>>>>>>>>>>>>>>>>>>>>>>>>>>>>>>>>>>>>>>>FOR COMPONENT NO. 04<<<<<<<<<<<<<<<<<<<<<<<<<<<<<<<<<<<<<<<<<<<<<<<<<<<<<<<


                                            -------------------------------------------
                                                      TRANSPORT STEP NO.    2
                                            -------------------------------------------

 TOTAL ELAPSED TIME SINCE BEGINNING OF SIMULATION =   9100.000       d
 .....................................................................

                     CUMMULATIVE MASS BUDGETS AT END OF TRANSPORT STEP    2, TIME STEP    9, STRESS PERIOD    3
                     ------------------------------------------------------------------------------------------

                                                             IN                           OUT
                                                      ----------------             ----------------
                               CONSTANT CONCENTRATION:    0.000000                    0.000000    
                                        CONSTANT HEAD:    0.000000                  -0.6357364E-14
                                             RECHARGE:    70853.84                    0.000000    
                                   EVAPOTRANSPIRATION:    0.000000                    1.309784    
                                MASS STORAGE (SOLUTE):    394.1131                   -71252.22    
                            ---------------------------------------------------------------------------
                                              [TOTAL]:    71247.95       mg          -71250.91       mg

                                                          NET (IN - OUT):   -2.953125    
                                                   DISCREPANCY (PERCENT):  -0.4144770E-02


                                          ================================================
                                                         TIME STEP NO.  010
                                          ================================================

 FROM TIME =   9100.0     TO    10000.    



     1 CALLS TO GCG PACKAGE FOR TRANSPORT TIME STEP   1 IN FLOW TIME STEP  10 STRESS PERIOD   3
    16 TOTAL ITERATIONS


     1 CALLS TO GCG PACKAGE FOR TRANSPORT TIME STEP   1 IN FLOW TIME STEP  10 STRESS PERIOD   3
    16 TOTAL ITERATIONS


     1 CALLS TO GCG PACKAGE FOR TRANSPORT TIME STEP   1 IN FLOW TIME STEP  10 STRESS PERIOD   3
    14 TOTAL ITERATIONS


     1 CALLS TO GCG PACKAGE FOR TRANSPORT TIME STEP   1 IN FLOW TIME STEP  10 STRESS PERIOD   3
    16 TOTAL ITERATIONS



 >>>>>>>>>>>>>>>>>>>>>>>>>>>>>>>>>>>>>>>>>>>>>>>>>>>>>>>FOR COMPONENT NO. 01<<<<<<<<<<<<<<<<<<<<<<<<<<<<<<<<<<<<<<<<<<<<<<<<<<<<<<<


                                            -------------------------------------------
                                                      TRANSPORT STEP NO.    1
                                            -------------------------------------------

 TOTAL ELAPSED TIME SINCE BEGINNING OF SIMULATION =   9661.539       d
 .....................................................................

                     CUMMULATIVE MASS BUDGETS AT END OF TRANSPORT STEP    1, TIME STEP   10, STRESS PERIOD    3
                     ------------------------------------------------------------------------------------------

                                                             IN                           OUT
                                                      ----------------             ----------------
                               CONSTANT CONCENTRATION:    0.000000                    0.000000    
                                        CONSTANT HEAD:    0.000000                   -8.791636    
                                             RECHARGE:   0.1153936E+09                0.000000    
                                   EVAPOTRANSPIRATION:    0.000000                    800.7333    
                                MASS STORAGE (SOLUTE):    214378.9                  -0.1155962E+09
                            ---------------------------------------------------------------------------
                                              [TOTAL]:   0.1156080E+09   mg         -0.1155954E+09   mg

                                                          NET (IN - OUT):    12664.00    
                                                   DISCREPANCY (PERCENT):   0.1095486E-01



 >>>>>>>>>>>>>>>>>>>>>>>>>>>>>>>>>>>>>>>>>>>>>>>>>>>>>>>FOR COMPONENT NO. 02<<<<<<<<<<<<<<<<<<<<<<<<<<<<<<<<<<<<<<<<<<<<<<<<<<<<<<<


                                            -------------------------------------------
                                                      TRANSPORT STEP NO.    1
                                            -------------------------------------------

 TOTAL ELAPSED TIME SINCE BEGINNING OF SIMULATION =   9661.539       d
 .....................................................................

                     CUMMULATIVE MASS BUDGETS AT END OF TRANSPORT STEP    1, TIME STEP   10, STRESS PERIOD    3
                     ------------------------------------------------------------------------------------------

                                                             IN                           OUT
                                                      ----------------             ----------------
                               CONSTANT CONCENTRATION:    0.000000                    0.000000    
                                        CONSTANT HEAD:    0.000000                  -0.8791841    
                                             RECHARGE:   0.1124635E+08                0.000000    
                                   EVAPOTRANSPIRATION:    0.000000                    76.09940    
                                MASS STORAGE (SOLUTE):    19335.83                  -0.1126445E+08
                            ---------------------------------------------------------------------------
                                              [TOTAL]:   0.1126568E+08   mg         -0.1126437E+08   mg

                                                          NET (IN - OUT):    1310.000    
                                                   DISCREPANCY (PERCENT):   0.1162891E-01



 >>>>>>>>>>>>>>>>>>>>>>>>>>>>>>>>>>>>>>>>>>>>>>>>>>>>>>>FOR COMPONENT NO. 03<<<<<<<<<<<<<<<<<<<<<<<<<<<<<<<<<<<<<<<<<<<<<<<<<<<<<<<


                                            -------------------------------------------
                                                      TRANSPORT STEP NO.    1
                                            -------------------------------------------

 TOTAL ELAPSED TIME SINCE BEGINNING OF SIMULATION =   9661.539       d
 .....................................................................

                     CUMMULATIVE MASS BUDGETS AT END OF TRANSPORT STEP    1, TIME STEP   10, STRESS PERIOD    3
                     ------------------------------------------------------------------------------------------

                                                             IN                           OUT
                                                      ----------------             ----------------
                               CONSTANT CONCENTRATION:    0.000000                    0.000000    
                                        CONSTANT HEAD:    0.000000                  -0.4399478E-01
                                             RECHARGE:    411780.8                    0.000000    
                                   EVAPOTRANSPIRATION:    0.000000                    2.367266    
                                MASS STORAGE (SOLUTE):    104.1527                   -411855.8    
                            ---------------------------------------------------------------------------
                                              [TOTAL]:    411884.9       mg          -411853.5       mg

                                                          NET (IN - OUT):    31.46875    
                                                   DISCREPANCY (PERCENT):   0.7640472E-02



 >>>>>>>>>>>>>>>>>>>>>>>>>>>>>>>>>>>>>>>>>>>>>>>>>>>>>>>FOR COMPONENT NO. 04<<<<<<<<<<<<<<<<<<<<<<<<<<<<<<<<<<<<<<<<<<<<<<<<<<<<<<<


                                            -------------------------------------------
                                                      TRANSPORT STEP NO.    1
                                            -------------------------------------------

 TOTAL ELAPSED TIME SINCE BEGINNING OF SIMULATION =   9661.539       d
 .....................................................................

                     CUMMULATIVE MASS BUDGETS AT END OF TRANSPORT STEP    1, TIME STEP   10, STRESS PERIOD    3
                     ------------------------------------------------------------------------------------------

                                                             IN                           OUT
                                                      ----------------             ----------------
                               CONSTANT CONCENTRATION:    0.000000                    0.000000    
                                        CONSTANT HEAD:    0.000000                  -0.2515389E-13
                                             RECHARGE:    75226.06                    0.000000    
                                   EVAPOTRANSPIRATION:    0.000000                    1.495476    
                                MASS STORAGE (SOLUTE):    402.1086                   -75632.69    
                            ---------------------------------------------------------------------------
                                              [TOTAL]:    75628.17       mg          -75631.20       mg

                                                          NET (IN - OUT):   -3.023438    
                                                   DISCREPANCY (PERCENT):  -0.3997686E-02
     1 CALLS TO GCG PACKAGE FOR TRANSPORT TIME STEP   2 IN FLOW TIME STEP  10 STRESS PERIOD   3
    13 TOTAL ITERATIONS
  MAXIMUM CONCENTRATION CHANGES FOR EACH ITERATION:
  MAX. CHANGE LAYER,ROW,COL MAX. CHANGE LAYER,ROW,COL MAX. CHANGE LAYER,ROW,COL MAX. CHANGE LAYER,ROW,COL MAX. CHANGE LAYER,ROW,COL
 ------------------------------------------------------------------------------------------------------------------------------------
   0.1838     (  1,127,180)  0.1694     (  1,128,180)  0.8112E-01 (  1,129,180)  0.3369E-01 (  1,129,183)  0.2283E-01 (  1,128,183)
   0.1017E-01 (  1,128,185)  0.5195E-02 (  1,127,185)  0.2455E-02 (  1,126,185)  0.9168E-03 (  1,128,186)  0.5048E-03 (  1,128,185)
   0.2426E-03 (  1,128,184)  0.1346E-03 (  1,129,184)  0.8231E-04 (  1,130,184)
     1 CALLS TO GCG PACKAGE FOR TRANSPORT TIME STEP   2 IN FLOW TIME STEP  10 STRESS PERIOD   3
    13 TOTAL ITERATIONS
  MAXIMUM CONCENTRATION CHANGES FOR EACH ITERATION:
  MAX. CHANGE LAYER,ROW,COL MAX. CHANGE LAYER,ROW,COL MAX. CHANGE LAYER,ROW,COL MAX. CHANGE LAYER,ROW,COL MAX. CHANGE LAYER,ROW,COL
 ------------------------------------------------------------------------------------------------------------------------------------
   0.1842     (  1,127,180)  0.1699     (  1,128,180)  0.8105E-01 (  1,129,180)  0.3384E-01 (  1,129,183)  0.2279E-01 (  1,128,183)
   0.1005E-01 (  1,128,185)  0.5180E-02 (  1,127,185)  0.2457E-02 (  1,126,185)  0.9348E-03 (  1,128,186)  0.5127E-03 (  1,128,185)
   0.2382E-03 (  1,128,184)  0.1333E-03 (  1,129,184)  0.8178E-04 (  1,130,184)
     1 CALLS TO GCG PACKAGE FOR TRANSPORT TIME STEP   2 IN FLOW TIME STEP  10 STRESS PERIOD   3
    11 TOTAL ITERATIONS
  MAXIMUM CONCENTRATION CHANGES FOR EACH ITERATION:
  MAX. CHANGE LAYER,ROW,COL MAX. CHANGE LAYER,ROW,COL MAX. CHANGE LAYER,ROW,COL MAX. CHANGE LAYER,ROW,COL MAX. CHANGE LAYER,ROW,COL
 ------------------------------------------------------------------------------------------------------------------------------------
   0.6791E-01 (  1, 80,105)  0.2312E-01 (  1, 39, 89)  0.1815E-01 (  1, 79, 92)  0.9617E-02 (  1, 41, 89)  0.4887E-02 (  1, 40, 89)
   0.2528E-02 (  1, 78, 92)  0.1084E-02 (  1, 70, 77)  0.5509E-03 (  1, 78, 92)  0.2891E-03 (  1, 40,114)  0.1427E-03 (  1, 40, 91)
   0.8947E-04 (  1, 41,113)
     1 CALLS TO GCG PACKAGE FOR TRANSPORT TIME STEP   2 IN FLOW TIME STEP  10 STRESS PERIOD   3
    13 TOTAL ITERATIONS
  MAXIMUM CONCENTRATION CHANGES FOR EACH ITERATION:
  MAX. CHANGE LAYER,ROW,COL MAX. CHANGE LAYER,ROW,COL MAX. CHANGE LAYER,ROW,COL MAX. CHANGE LAYER,ROW,COL MAX. CHANGE LAYER,ROW,COL
 ------------------------------------------------------------------------------------------------------------------------------------
   0.1802     (  1,127,180)  0.1654     (  1,128,180)  0.7967E-01 (  1,129,180)  0.3367E-01 (  1,129,183)  0.2370E-01 (  1,128,183)
   0.1080E-01 (  1,128,182)  0.5158E-02 (  1,127,185)  0.2503E-02 (  1,126,185)  0.9177E-03 (  1,125,184)  0.5724E-03 (  1,127,179)
   0.2497E-03 (  1,128,180)  0.1275E-03 (  1,127,180)  0.7331E-04 (  1,130,184)



 >>>>>>>>>>>>>>>>>>>>>>>>>>>>>>>>>>>>>>>>>>>>>>>>>>>>>>>FOR COMPONENT NO. 01<<<<<<<<<<<<<<<<<<<<<<<<<<<<<<<<<<<<<<<<<<<<<<<<<<<<<<<


                                            -------------------------------------------
                                                      TRANSPORT STEP NO.    2
                                            -------------------------------------------

 TOTAL ELAPSED TIME SINCE BEGINNING OF SIMULATION =   10000.00       d
 .....................................................................

                     CUMMULATIVE MASS BUDGETS AT END OF TRANSPORT STEP    2, TIME STEP   10, STRESS PERIOD    3
                     ------------------------------------------------------------------------------------------

                                                             IN                           OUT
                                                      ----------------             ----------------
                               CONSTANT CONCENTRATION:    0.000000                    0.000000    
                                        CONSTANT HEAD:    0.000000                   -12.31770    
                                             RECHARGE:   0.1194361E+09                0.000000    
                                   EVAPOTRANSPIRATION:    0.000000                    864.1519    
                                MASS STORAGE (SOLUTE):    262775.5                  -0.1196868E+09
                            ---------------------------------------------------------------------------
                                              [TOTAL]:   0.1196989E+09   mg         -0.1196860E+09   mg

                                                          NET (IN - OUT):    12920.00    
                                                   DISCREPANCY (PERCENT):   0.1079434E-01



 >>>>>>>>>>>>>>>>>>>>>>>>>>>>>>>>>>>>>>>>>>>>>>>>>>>>>>>FOR COMPONENT NO. 02<<<<<<<<<<<<<<<<<<<<<<<<<<<<<<<<<<<<<<<<<<<<<<<<<<<<<<<


                                            -------------------------------------------
                                                      TRANSPORT STEP NO.    2
                                            -------------------------------------------

 TOTAL ELAPSED TIME SINCE BEGINNING OF SIMULATION =   10000.00       d
 .....................................................................

                     CUMMULATIVE MASS BUDGETS AT END OF TRANSPORT STEP    2, TIME STEP   10, STRESS PERIOD    3
                     ------------------------------------------------------------------------------------------

                                                             IN                           OUT
                                                      ----------------             ----------------
                               CONSTANT CONCENTRATION:    0.000000                    0.000000    
                                        CONSTANT HEAD:    0.000000                   -1.231799    
                                             RECHARGE:   0.1164033E+08                0.000000    
                                   EVAPOTRANSPIRATION:    0.000000                    81.89136    
                                MASS STORAGE (SOLUTE):    23680.29                  -0.1166275E+08
                            ---------------------------------------------------------------------------
                                              [TOTAL]:   0.1166401E+08   mg         -0.1166267E+08   mg

                                                          NET (IN - OUT):    1341.000    
                                                   DISCREPANCY (PERCENT):   0.1149757E-01



 >>>>>>>>>>>>>>>>>>>>>>>>>>>>>>>>>>>>>>>>>>>>>>>>>>>>>>>FOR COMPONENT NO. 03<<<<<<<<<<<<<<<<<<<<<<<<<<<<<<<<<<<<<<<<<<<<<<<<<<<<<<<


                                            -------------------------------------------
                                                      TRANSPORT STEP NO.    2
                                            -------------------------------------------

 TOTAL ELAPSED TIME SINCE BEGINNING OF SIMULATION =   10000.00       d
 .....................................................................

                     CUMMULATIVE MASS BUDGETS AT END OF TRANSPORT STEP    2, TIME STEP   10, STRESS PERIOD    3
                     ------------------------------------------------------------------------------------------

                                                             IN                           OUT
                                                      ----------------             ----------------
                               CONSTANT CONCENTRATION:    0.000000                    0.000000    
                                        CONSTANT HEAD:    0.000000                  -0.6164146E-01
                                             RECHARGE:    426206.2                    0.000000    
                                   EVAPOTRANSPIRATION:    0.000000                    2.548994    
                                MASS STORAGE (SOLUTE):    104.9482                   -426280.1    
                            ---------------------------------------------------------------------------
                                              [TOTAL]:    426311.1       mg          -426277.6       mg

                                                          NET (IN - OUT):    33.53125    
                                                   DISCREPANCY (PERCENT):   0.7865750E-02



 >>>>>>>>>>>>>>>>>>>>>>>>>>>>>>>>>>>>>>>>>>>>>>>>>>>>>>>FOR COMPONENT NO. 04<<<<<<<<<<<<<<<<<<<<<<<<<<<<<<<<<<<<<<<<<<<<<<<<<<<<<<<


                                            -------------------------------------------
                                                      TRANSPORT STEP NO.    2
                                            -------------------------------------------

 TOTAL ELAPSED TIME SINCE BEGINNING OF SIMULATION =   10000.00       d
 .....................................................................

                     CUMMULATIVE MASS BUDGETS AT END OF TRANSPORT STEP    2, TIME STEP   10, STRESS PERIOD    3
                     ------------------------------------------------------------------------------------------

                                                             IN                           OUT
                                                      ----------------             ----------------
                               CONSTANT CONCENTRATION:    0.000000                    0.000000    
                                        CONSTANT HEAD:    0.000000                  -0.4714199E-13
                                             RECHARGE:    77861.37                    0.000000    
                                   EVAPOTRANSPIRATION:    0.000000                    1.615294    
                                MASS STORAGE (SOLUTE):    504.9413                   -78371.13    
                            ---------------------------------------------------------------------------
                                              [TOTAL]:    78366.30       mg          -78369.52       mg

                                                          NET (IN - OUT):   -3.210938    
                                                   DISCREPANCY (PERCENT):  -0.4097261E-02
  ----- 
 | M T |
 | 3 D | END OF MODEL OUTPUT
  ----- 
