
                              +++++++++++++++++++++++++++++++++++++++++++++++++++++++++++++++++++++++
                              +                                                                     +
                              +                               MT3DMS                                +
                              +             A Modular 3D Multi-Species Transport Model              +
                              +    For Simulation of Advection, Dispersion and Chemical Reactions   +
                              +                of Contaminants in Groundwater Systems               +
                              +                                                                     +
                              +++++++++++++++++++++++++++++++++++++++++++++++++++++++++++++++++++++++

  ----- 
 | M T | GMS MT3D Simulation                                                             
 | 3 D | 08 October 2017                                                                 
  ----- 
 THE TRANSPORT MODEL CONSISTS OF     4 LAYER(S)  231 ROW(S)  259 COLUMN(S)
 NUMBER OF STRESS PERIOD(S) FOR TRANSPORT SIMULATION =    3
 NUMBER OF ALL COMPONENTS INCLUDED IN SIMULATION =    4
 NUMBER OF MOBILE COMPONENTS INCLUDED IN SIMULATION =    4
 UNIT FOR TIME IS    d;  UNIT FOR LENGTH IS    m;  UNIT FOR MASS IS   mg
 OPTIONAL PACKAGES INCLUDED IN CURRENT SIMULATION:
  o ADV   ON UNIT  2
  o DSP   ON UNIT  3
  o SSM   ON UNIT  4
  o GCG   ON UNIT  9
  o TOB   ON UNIT 12

 BTN5 -- BASIC TRANSPORT PACKAGE, VERSION 5, FEBRUARY 2010, INPUT READ FROM UNIT  1
    7958237 ELEMENTS OF THE  X ARRAY USED BY THE BTN PACKAGE
     957268 ELEMENTS OF THE IX ARRAY USED BY THE BTN PACKAGE

 FMI5 -- FLOW MODEL INTERFACE PACKAGE, VERSION 5, FEBRUARY 2010, INPUT READ FROM UNIT 10
 FLOW MODEL IS STEADY-STATE
 FLOW MODEL CONTAINS CONSTANT-HEAD CELLS

 ADV5 -- ADVECTION PACKAGE, VERSION 5, FEBRUARY 2010, INPUT READ FROM UNIT  2
 ADVECTION IS SOLVED WITH THE ULTIMATE SCHEME
 COURANT NUMBER ALLOWED IN SOLVING THE ADVECTION TERM =  1.00    
          0 ELEMENTS OF THE  X ARRAY USED BY THE ADV PACKAGE
          0 ELEMENTS OF THE IX ARRAY USED BY THE ADV PACKAGE

 DSP5 -- DISPERSION PACKAGE, VERSION 5, FEBRUARY 2010, INPUT READ FROM UNIT  3
    5504276 ELEMENTS OF THE  X ARRAY USED BY THE DSP PACKAGE
          0 ELEMENTS OF THE IX ARRAY USED BY THE DSP PACKAGE

 SSM5 -- SINK & SOURCE MIXING PACKAGE, VERSION 5, FEBRUARY 2010, INPUT READ FROM UNIT  4
 HEADER LINE OF THE SSM PACKAGE INPUT FILE:
  F F T T F F                                                                                                                                                                                            
 MAJOR STRESS COMPONENTS PRESENT IN THE FLOW MODEL:
  o RECHARGE [RCH]
  o EVAPOTRANSPIRATION [EVT]
 MAXIMUM NUMBER OF POINT SINKS/SOURCES =   14928
     837138 ELEMENTS OF THE  X ARRAY USED BY THE SSM PACKAGE
     119658 ELEMENTS OF THE IX ARRAY BY THE SSM PACKAGE

 GCG5 -- GENERALIZED CONJUGATE GRADIENT SOLVER PACKAGE, VERSION 5, FEBRUARY 2010 INPUT READ FROM UNIT  9
 MAXIMUM OF    1 OUTER ITERATIONS
        AND   50 INNER ITERATIONS ALLOWED FOR CLOSURE
 THE PRECONDITIONING TYPE SELECTED IS JACOBI.
 DISPERSION CROSS TERMS LUMPED INTO RIGHT-HAND-SIDE
    3589790 ELEMENTS OF THE  X ARRAY USED BY THE GCG PACKAGE
        150 ELEMENTS OF THE IX ARRAY USED BY THE GCG PACKAGE

 TOB5 -- TRANSPORT OBSERVATION PACKAGE, VERSION 5, FEBRUARY 2010, INPUT READ FROM UNIT 12
# TOBS package input file (GMS - 6.0)                                                                                                                                                                   
 MAXIMUM NUMBER OF CONC OBSERVATION WELLS =      0
 MAXIMUM NUMBER OF MASS-FLUX OBSERVATIONS =      0
 MAXIMUM NUMBER OF CELLS IN A FLUX OBJECT =      0
         28 ELEMENTS OF THE  X ARRAY USED BY THE TOB PACKAGE
          4 ELEMENTS OF THE IX ARRAY USED BY THE TOB PACKAGE

 ..........................................
 ELEMENTS OF THE  X ARRAY USED =  17889470
 ELEMENTS OF THE IX ARRAY USED =   1077081
 ..........................................

 LAYER NUMBER  AQUIFER TYPE
 ------------  ------------
       1            1
       2            0
       3            0
       4            0

                           WIDTH ALONG ROWS (DELR)  READ ON UNIT  1 USING FORMAT: "           (10G15.6)"
                           -----------------------------------------------------------------------------

            1           2           3           4           5           6           7           8           9          10
           11          12          13          14          15          16          17          18          19          20
           21          22          23          24          25          26          27          28          29          30
           31          32          33          34          35          36          37          38          39          40
           41          42          43          44          45          46          47          48          49          50
           51          52          53          54          55          56          57          58          59          60
           61          62          63          64          65          66          67          68          69          70
           71          72          73          74          75          76          77          78          79          80
           81          82          83          84          85          86          87          88          89          90
           91          92          93          94          95          96          97          98          99         100
          101         102         103         104         105         106         107         108         109         110
          111         112         113         114         115         116         117         118         119         120
          121         122         123         124         125         126         127         128         129         130
          131         132         133         134         135         136         137         138         139         140
          141         142         143         144         145         146         147         148         149         150
          151         152         153         154         155         156         157         158         159         160
          161         162         163         164         165         166         167         168         169         170
          171         172         173         174         175         176         177         178         179         180
          181         182         183         184         185         186         187         188         189         190
          191         192         193         194         195         196         197         198         199         200
          201         202         203         204         205         206         207         208         209         210
          211         212         213         214         215         216         217         218         219         220
          221         222         223         224         225         226         227         228         229         230
          231         232         233         234         235         236         237         238         239         240
          241         242         243         244         245         246         247         248         249         250
          251         252         253         254         255         256         257         258         259
 .............................................................................................................................
   1    99.55       99.55       99.55       99.55       99.55       99.55       99.55       99.55       99.55       99.55    
        99.55       99.55       99.55       99.55       99.55       99.55       99.55       99.55       99.55       99.55    
        99.55       99.55       99.55       99.55       99.55       99.55       99.55       99.55       99.55       99.55    
        99.55       99.55       99.55       99.55       99.55       99.55       99.55       99.55       99.55       99.55    
        99.55       99.55       99.55       99.55       99.55       99.55       99.55       99.55       99.55       99.55    
        99.55       99.55       99.55       99.55       95.97       87.25       79.32       72.10       65.55       59.59    
        54.17       49.25       44.77       40.70       37.00       33.64       30.58       27.80       25.27       22.97    
        20.89       18.99       17.26       15.69       14.27       12.97       11.79       10.72       9.744       8.858    
        8.053       7.320       6.655       6.050       5.500       5.000       5.500       6.050       6.655       7.320    
        8.053       8.722       8.722       8.053       7.320       6.655       6.050       5.500       5.000       5.500    
        6.050       6.520       6.520       6.520       6.520       6.520       6.520       6.520       6.520       6.520    
        6.520       6.050       5.500       5.000       5.615       5.615       5.615       5.615       5.000       5.500    
        6.050       6.655       7.320       8.053       8.858       9.744       10.72       11.79       12.97       14.27    
        15.69       17.26       18.99       20.89       22.97       25.27       27.80       30.58       33.64       37.00    
        40.70       44.77       49.25       54.17       59.59       65.55       72.10       79.32       87.25       88.59    
        88.59       87.25       79.32       72.10       65.55       59.59       54.17       49.25       44.77       40.70    
        37.00       33.64       30.58       27.80       25.27       22.97       20.89       18.99       17.26       15.69    
        14.27       12.97       11.79       10.72       9.744       8.858       8.053       7.320       6.655       6.050    
        5.500       5.000       5.500       6.050       6.655       7.320       8.053       8.858       9.744       10.72    
        11.79       12.97       14.27       15.69       17.26       18.99       20.89       22.97       25.27       27.80    
        30.58       33.64       37.00       40.70       44.77       49.25       54.17       59.59       65.55       72.10    
        79.32       87.25       95.97       98.31       98.31       98.31       98.31       98.31       98.31       98.31    
        98.31       98.31       98.31       98.31       98.31       98.31       98.31       98.31       98.31       98.31    
        98.31       98.31       98.31       98.31       98.31       98.31       98.31       98.31       98.31       98.31    
        98.31       98.31       98.31       98.31       98.31       98.31       98.31       98.31       98.31       98.31    
        98.31       98.31       98.31       98.31       98.31       98.31       98.31       98.31       98.31    

                           WIDTH ALONG COLS (DELC)  READ ON UNIT  1 USING FORMAT: "           (10G15.6)"
                           -----------------------------------------------------------------------------

            1           2           3           4           5           6           7           8           9          10
           11          12          13          14          15          16          17          18          19          20
           21          22          23          24          25          26          27          28          29          30
           31          32          33          34          35          36          37          38          39          40
           41          42          43          44          45          46          47          48          49          50
           51          52          53          54          55          56          57          58          59          60
           61          62          63          64          65          66          67          68          69          70
           71          72          73          74          75          76          77          78          79          80
           81          82          83          84          85          86          87          88          89          90
           91          92          93          94          95          96          97          98          99         100
          101         102         103         104         105         106         107         108         109         110
          111         112         113         114         115         116         117         118         119         120
          121         122         123         124         125         126         127         128         129         130
          131         132         133         134         135         136         137         138         139         140
          141         142         143         144         145         146         147         148         149         150
          151         152         153         154         155         156         157         158         159         160
          161         162         163         164         165         166         167         168         169         170
          171         172         173         174         175         176         177         178         179         180
          181         182         183         184         185         186         187         188         189         190
          191         192         193         194         195         196         197         198         199         200
          201         202         203         204         205         206         207         208         209         210
          211         212         213         214         215         216         217         218         219         220
          221         222         223         224         225         226         227         228         229         230
          231
 .............................................................................................................................
   1    90.38       90.38       90.38       90.38       90.38       90.38       90.38       90.38       90.38       87.25    
        79.32       72.10       65.55       59.59       54.17       49.25       44.77       40.70       37.00       33.64    
        30.58       27.80       25.27       22.97       20.89       18.99       17.26       15.69       14.27       12.97    
        11.79       10.72       9.744       8.858       8.053       7.320       6.655       6.050       5.500       5.000    
        5.500       6.050       6.655       7.320       8.053       8.858       9.744       10.42       10.42       10.42    
        10.42       10.42       10.42       10.42       10.42       10.42       10.42       9.744       8.858       8.053    
        7.320       6.655       6.050       5.500       5.000       5.500       5.500       5.500       5.500       5.000    
        5.500       6.050       6.655       7.320       8.053       8.858       9.744       10.72       11.79       12.97    
        14.27       15.69       16.07       16.07       15.69       14.27       12.97       11.79       10.72       9.744    
        8.858       8.053       7.320       6.655       6.050       5.500       5.000       5.500       6.050       6.655    
        7.320       8.053       8.858       9.744       10.72       11.79       12.97       14.27       15.69       17.26    
        18.99       20.89       22.88       22.88       20.89       18.99       17.26       15.69       14.27       12.97    
        11.79       10.72       9.744       8.858       8.053       7.320       6.655       6.050       5.500       5.000    
        5.500       6.050       6.655       7.320       8.053       8.858       9.744       10.72       11.79       12.97    
        14.27       15.69       17.26       18.99       20.89       22.97       25.27       27.80       30.58       33.64    
        37.00       40.70       44.77       49.25       54.17       59.59       65.55       72.10       79.32       87.25    
        95.97       99.64       99.64       99.64       99.64       99.64       99.64       99.64       99.64       99.64    
        99.64       99.64       99.64       99.64       99.64       99.64       99.64       99.64       99.64       99.64    
        99.64       99.64       99.64       99.64       99.64       99.64       99.64       99.64       99.64       99.64    
        99.64       99.64       99.64       99.64       99.64       99.64       99.64       99.64       99.64       99.64    
        99.64       99.64       99.64       99.64       99.64       99.64       99.64       99.64       99.64       99.64    
        99.64       99.64       99.64       99.64       99.64       99.64       99.64       99.64       99.64       99.64    
        99.64       99.64       99.64       99.64       99.64       99.64       99.64       99.64       99.64       99.64    
        99.64    

                           TOP ELEV. OF 1ST LAYER   READ ON UNIT  1 USING FORMAT: "           (10G15.6)"
                           -----------------------------------------------------------------------------

                     CELL THICKNESS (DZ)      FOR LAYER  1 READ ON UNIT  1 USING FORMAT: "           (10G15.6)"
                     ------------------------------------------------------------------------------------------

                     CELL THICKNESS (DZ)      FOR LAYER  2 READ ON UNIT  1 USING FORMAT: "           (10G15.6)"
                     ------------------------------------------------------------------------------------------

                     CELL THICKNESS (DZ)      FOR LAYER  3 READ ON UNIT  1 USING FORMAT: "           (10G15.6)"
                     ------------------------------------------------------------------------------------------

                     CELL THICKNESS (DZ)      FOR LAYER  4 READ ON UNIT  1 USING FORMAT: "           (10G15.6)"
                     ------------------------------------------------------------------------------------------
                                       POROSITY                 =  0.3000000     FOR LAYER  1
                                       POROSITY                 =  0.3000000     FOR LAYER  2
                                       POROSITY                 =  0.3000000     FOR LAYER  3
                                       POROSITY                 =  0.3000000     FOR LAYER  4

                     CONCN. BOUNDARY ARRAY    FOR LAYER  1 READ ON UNIT  1 USING FORMAT: "              (30I3)"
                     ------------------------------------------------------------------------------------------

                     CONCN. BOUNDARY ARRAY    FOR LAYER  2 READ ON UNIT  1 USING FORMAT: "              (30I3)"
                     ------------------------------------------------------------------------------------------

                     CONCN. BOUNDARY ARRAY    FOR LAYER  3 READ ON UNIT  1 USING FORMAT: "              (30I3)"
                     ------------------------------------------------------------------------------------------

                     CONCN. BOUNDARY ARRAY    FOR LAYER  4 READ ON UNIT  1 USING FORMAT: "              (30I3)"
                     ------------------------------------------------------------------------------------------
                                       INITIAL CONC.: COMP.  01 =   0.000000     FOR LAYER  1
                                       INITIAL CONC.: COMP.  01 =   0.000000     FOR LAYER  2
                                       INITIAL CONC.: COMP.  01 =   0.000000     FOR LAYER  3
                                       INITIAL CONC.: COMP.  01 =   0.000000     FOR LAYER  4
                                       INITIAL CONC.: COMP.  02 =   0.000000     FOR LAYER  1
                                       INITIAL CONC.: COMP.  02 =   0.000000     FOR LAYER  2
                                       INITIAL CONC.: COMP.  02 =   0.000000     FOR LAYER  3
                                       INITIAL CONC.: COMP.  02 =   0.000000     FOR LAYER  4
                                       INITIAL CONC.: COMP.  03 =   0.000000     FOR LAYER  1
                                       INITIAL CONC.: COMP.  03 =   0.000000     FOR LAYER  2
                                       INITIAL CONC.: COMP.  03 =   0.000000     FOR LAYER  3
                                       INITIAL CONC.: COMP.  03 =   0.000000     FOR LAYER  4
                                       INITIAL CONC.: COMP.  04 =   0.000000     FOR LAYER  1
                                       INITIAL CONC.: COMP.  04 =   0.000000     FOR LAYER  2
                                       INITIAL CONC.: COMP.  04 =   0.000000     FOR LAYER  3
                                       INITIAL CONC.: COMP.  04 =   0.000000     FOR LAYER  4

 VALUE INDICATING INACTIVE CONCENTRATION CELLS =   -999.0000    
 MINIMUM SATURATED THICKNESS [THKMIN] ALLOWED =  0.0000 OF TOTAL CELL THICKNESS


 OUTPUT CONTROL OPTIONS
 ----------------------

 DO NOT PRINT CELL CONCENTRATION
 DO NOT PRINT PARTICLE NUMBER IN EACH CELL
 DO NOT PRINT RETARDATION FACTOR
 DO NOT PRINT DISPERSION COEFFICIENT
 SAVE DISSOLVED PHASE CONCENTRATIONS IN UNFORMATTED FILES [MT3Dnnn.UCN]
  FOR EACH SPECIES ON UNITS 201 AND ABOVE

 SIMULATION RESULTS ARE SAVED EVERY   1 TRANSPORT STEP(S)

 NUMBER OF OBSERVATION POINTS =    0

 SAVE ONE-LINE SUMMARY OF MASS BUDGETS IN FILES [MT3Dnnn.MAS]
  FOR EACH SPECIES ON UNITS 601 AND ABOVE, EVERY  1 TRANSPORT STEPS

 MAXIMUM LENGTH ALONG THE X (J) AXIS =   14106.38    
 MAXIMUM LENGTH ALONG THE Y (I) AXIS =   10611.69    
 MAXIMUM LENGTH ALONG THE Z (K) AXIS =   80.35999    


 ADVECTION SOLUTION OPTIONS
 --------------------------

 ADVECTION IS SOLVED WITH THE ULTIMATE SCHEME
 COURANT NUMBER ALLOWED IN SOLVING THE ADVECTION TERM =  1.00    


 DISPERSION INPUT PARAMETERS
 ---------------------------


                     LONG. DISPERSIVITY (AL)  FOR LAYER  1 READ ON UNIT  3 USING FORMAT: "           (10G15.6)"
                     ------------------------------------------------------------------------------------------

                     LONG. DISPERSIVITY (AL)  FOR LAYER  2 READ ON UNIT  3 USING FORMAT: "           (10G15.6)"
                     ------------------------------------------------------------------------------------------

                     LONG. DISPERSIVITY (AL)  FOR LAYER  3 READ ON UNIT  3 USING FORMAT: "           (10G15.6)"
                     ------------------------------------------------------------------------------------------

                     LONG. DISPERSIVITY (AL)  FOR LAYER  4 READ ON UNIT  3 USING FORMAT: "           (10G15.6)"
                     ------------------------------------------------------------------------------------------
                                       H. TRANS./LONG. DISP.    =  0.1000000    
                                       V. TRANS./LONG. DISP.    =  0.1000000E-01
                                       DIFFUSION COEFFICIENT    =   0.000000    



                                               SOLUTION BY THE GENERALIZED CONJUGATE GRADIENT METHOD
                                               -----------------------------------------------------
                                     MAXIMUM OUTER ITERATIONS ALLOWED FOR CLOSURE =        1
                                     MAXIMUM INNER ITERATIONS ALLOWED FOR CLOSURE =       50
                                                    PRECONDITIONING TYPE SELECTED =    1
                                                           ACCELERATION PARAMETER =     1.0000    
                                       CONCENTRATION CHANGE CRITERION FOR CLOSURE =    0.10000E-03
                                       GCG CONCENTRATION CHANGE PRINTOUT INTERVAL =      999


 TRANSPORT OBSERVATION INPUT DATA
 --------------------------------

 NUMBER OF CONCENTRATION OBSERVATION WELLS:     0
    MULTIPLIER FOR OBSERVED CONCENTRATIONS:    1.000    
    OPTION FOR CALCULATING RESIDUAL ERRORS:     1
         OPTION FOR LOGARITHMIC CONVERSION:     0
 OPTION FOR INTERPOLATING CALCULATED CONC.:     0

 OBS_NAME     LAYER  ROW  COL. SPECIES  OBS_TIME   ROW_OFFSET  COL_OFFSET    WEIGHT      OBS_CONC
 ...................................................................................................


                                   ++++++++++++++++++++++++++++++++++++++++++++++++++++++++++++++
                                                       STRESS PERIOD NO.  001
                                   ++++++++++++++++++++++++++++++++++++++++++++++++++++++++++++++


 LENGTH OF CURRENT STRESS PERIOD =   100.0000    
 NUMBER OF TIME STEPS FOR CURRENT STRESS PERIOD =   10
 TIME STEP MULTIPLIER USED IN FLOW SOLUTION =   1.000000    

 ***Type of Transport Simulation is TRANSIENT

 USER-SPECIFIED TRANSPORT STEPSIZE =   0.000000       d
 MAXIMUM NUMBER OF TRANSPORT STEPS ALLOWED  IN ONE FLOW TIME STEP =      1000
 MULTIPLIER FOR SUCCESSIVE TRANSPORT STEPS  [USED IN IMPLICIT SCHEMES] =     1.000
 MAXIMUM TRANSPORT STEP SIZE  [USED IN IMPLICIT SCHEMES] =   0.000000       d

 CONCENTRATION OF RECHARGE FLUXES WILL BE READ IN STRESS PERIOD  1

                           RECH. CONC. COMP.  01    READ ON UNIT  4 USING FORMAT: "           (10G15.6)"
                           -----------------------------------------------------------------------------

                           RECH. CONC. COMP.  02    READ ON UNIT  4 USING FORMAT: "           (10G15.6)"
                           -----------------------------------------------------------------------------

                           RECH. CONC. COMP.  03    READ ON UNIT  4 USING FORMAT: "           (10G15.6)"
                           -----------------------------------------------------------------------------

                           RECH. CONC. COMP.  04    READ ON UNIT  4 USING FORMAT: "           (10G15.6)"
                           -----------------------------------------------------------------------------

 CONCENTRATION OF E. T. FLUXES WILL BE READ IN STRESS PERIOD  1
                                       E. T. CONC. COMP.  01    =   0.000000    
                                       E. T. CONC. COMP.  02    =   0.000000    
                                       E. T. CONC. COMP.  03    =   0.000000    
                                       E. T. CONC. COMP.  04    =   0.000000    

 NO. OF POINT SINKS/SOURCES OF SPECIFIED CONCONCENTRATIONS =    0 IN STRESS PERIOD  1


                                          ================================================
                                                         TIME STEP NO.  001
                                          ================================================

 FROM TIME =   0.0000     TO    10.000    


                    "THKSAT          " FLOW TERMS FOR TIME STEP  1, STRESS PERIOD  1 READ UNFORMATTED ON UNIT 10
                    --------------------------------------------------------------------------------------------

                    "QXX             " FLOW TERMS FOR TIME STEP  1, STRESS PERIOD  1 READ UNFORMATTED ON UNIT 10
                    --------------------------------------------------------------------------------------------

                    "QYY             " FLOW TERMS FOR TIME STEP  1, STRESS PERIOD  1 READ UNFORMATTED ON UNIT 10
                    --------------------------------------------------------------------------------------------

                    "QZZ             " FLOW TERMS FOR TIME STEP  1, STRESS PERIOD  1 READ UNFORMATTED ON UNIT 10
                    --------------------------------------------------------------------------------------------

 MAXIMUM STEPSIZE DURING WHICH ANY PARTICLE CANNOT MOVE MORE THAN ONE CELL
 =  946.4    (WHEN MIN. R.F.=1)  AT K=   1, I= 129, J= 185

 MAXIMUM STEPSIZE WHICH MEETS STABILITY CRITERION OF THE ADVECTION TERM
 (FOR PURE FINITE-DIFFERENCE OPTION, MIXELM=0) 
 =  561.1    (WHEN MIN. R.F.=1)  AT K=   1, I= 130, J= 186

                    "CNH             " FLOW TERMS FOR TIME STEP  1, STRESS PERIOD  1 READ UNFORMATTED ON UNIT 10
                    --------------------------------------------------------------------------------------------

                    "RCH             " FLOW TERMS FOR TIME STEP  1, STRESS PERIOD  1 READ UNFORMATTED ON UNIT 10
                    --------------------------------------------------------------------------------------------

                    "EVT             " FLOW TERMS FOR TIME STEP  1, STRESS PERIOD  1 READ UNFORMATTED ON UNIT 10
                    --------------------------------------------------------------------------------------------


 TOTAL NUMBER OF POINT SOURCES/SINKS PRESENT IN THE FLOW MODEL =  3732

 MAXIMUM STEPSIZE WHICH MEETS STABILITY CRITERION OF THE SINK & SOURCE TERM
 =  1186.    (WHEN MIN. R.F.=1)  AT K=   1, I= 127, J= 180

 MAXIMUM STEPSIZE WHICH MEETS STABILITY CRITERION OF THE DISPERSION TERM
 =  41.50    (WHEN MIN. R.F.=1)  AT K=   1, I= 129, J= 185


     1 CALLS TO GCG PACKAGE FOR TRANSPORT TIME STEP   1 IN FLOW TIME STEP   1 STRESS PERIOD   1
     6 TOTAL ITERATIONS
  MAXIMUM CONCENTRATION CHANGES FOR EACH ITERATION:
  MAX. CHANGE LAYER,ROW,COL MAX. CHANGE LAYER,ROW,COL MAX. CHANGE LAYER,ROW,COL MAX. CHANGE LAYER,ROW,COL MAX. CHANGE LAYER,ROW,COL
 ------------------------------------------------------------------------------------------------------------------------------------
    18.80     (  1,133,185)   1.681     (  1,129,185)  0.1738     (  1,129,184)  0.1174E-01 (  1,129,185)  0.6599E-03 (  1,127,179)
   0.5174E-04 (  1,127,181)


     1 CALLS TO GCG PACKAGE FOR TRANSPORT TIME STEP   1 IN FLOW TIME STEP   1 STRESS PERIOD   1
     5 TOTAL ITERATIONS
  MAXIMUM CONCENTRATION CHANGES FOR EACH ITERATION:
  MAX. CHANGE LAYER,ROW,COL MAX. CHANGE LAYER,ROW,COL MAX. CHANGE LAYER,ROW,COL MAX. CHANGE LAYER,ROW,COL MAX. CHANGE LAYER,ROW,COL
 ------------------------------------------------------------------------------------------------------------------------------------
    1.797     (  1,133,185)  0.1607     (  1,129,185)  0.1662E-01 (  1,129,184)  0.1116E-02 (  1,129,185)  0.6330E-04 (  1,127,179)


     1 CALLS TO GCG PACKAGE FOR TRANSPORT TIME STEP   1 IN FLOW TIME STEP   1 STRESS PERIOD   1
     3 TOTAL ITERATIONS
  MAXIMUM CONCENTRATION CHANGES FOR EACH ITERATION:
  MAX. CHANGE LAYER,ROW,COL MAX. CHANGE LAYER,ROW,COL MAX. CHANGE LAYER,ROW,COL MAX. CHANGE LAYER,ROW,COL MAX. CHANGE LAYER,ROW,COL
 ------------------------------------------------------------------------------------------------------------------------------------
   0.4412E-02 (  1, 29, 95)  0.3711E-03 (  1, 40,113)  0.3395E-04 (  1, 41,114)


     1 CALLS TO GCG PACKAGE FOR TRANSPORT TIME STEP   1 IN FLOW TIME STEP   1 STRESS PERIOD   1
     4 TOTAL ITERATIONS
  MAXIMUM CONCENTRATION CHANGES FOR EACH ITERATION:
  MAX. CHANGE LAYER,ROW,COL MAX. CHANGE LAYER,ROW,COL MAX. CHANGE LAYER,ROW,COL MAX. CHANGE LAYER,ROW,COL MAX. CHANGE LAYER,ROW,COL
 ------------------------------------------------------------------------------------------------------------------------------------
   0.5180E-01 (  1,133,185)  0.4633E-02 (  1,129,185)  0.4729E-03 (  1,129,184)  0.3139E-04 (  1,129,185)



 >>>>>>>>>>>>>>>>>>>>>>>>>>>>>>>>>>>>>>>>>>>>>>>>>>>>>>>FOR COMPONENT NO. 01<<<<<<<<<<<<<<<<<<<<<<<<<<<<<<<<<<<<<<<<<<<<<<<<<<<<<<<


                                            -------------------------------------------
                                                      TRANSPORT STEP NO.    1
                                            -------------------------------------------

 TOTAL ELAPSED TIME SINCE BEGINNING OF SIMULATION =   10.00000       d
 .....................................................................

                     CUMMULATIVE MASS BUDGETS AT END OF TRANSPORT STEP    1, TIME STEP    1, STRESS PERIOD    1
                     ------------------------------------------------------------------------------------------

                                                             IN                           OUT
                                                      ----------------             ----------------
                               CONSTANT CONCENTRATION:    0.000000                    0.000000    
                                        CONSTANT HEAD:    0.000000                    0.000000    
                                             RECHARGE:    119435.7                    0.000000    
                                   EVAPOTRANSPIRATION:    0.000000                    0.000000    
                                MASS STORAGE (SOLUTE):    0.000000                   -119434.3    
                            ---------------------------------------------------------------------------
                                              [TOTAL]:    119435.7       mg          -119434.3       mg

                                                          NET (IN - OUT):    1.468750    
                                                   DISCREPANCY (PERCENT):   0.1229748E-02



 >>>>>>>>>>>>>>>>>>>>>>>>>>>>>>>>>>>>>>>>>>>>>>>>>>>>>>>FOR COMPONENT NO. 02<<<<<<<<<<<<<<<<<<<<<<<<<<<<<<<<<<<<<<<<<<<<<<<<<<<<<<<


                                            -------------------------------------------
                                                      TRANSPORT STEP NO.    1
                                            -------------------------------------------

 TOTAL ELAPSED TIME SINCE BEGINNING OF SIMULATION =   10.00000       d
 .....................................................................

                     CUMMULATIVE MASS BUDGETS AT END OF TRANSPORT STEP    1, TIME STEP    1, STRESS PERIOD    1
                     ------------------------------------------------------------------------------------------

                                                             IN                           OUT
                                                      ----------------             ----------------
                               CONSTANT CONCENTRATION:    0.000000                    0.000000    
                                        CONSTANT HEAD:    0.000000                    0.000000    
                                             RECHARGE:    11640.29                    0.000000    
                                   EVAPOTRANSPIRATION:    0.000000                    0.000000    
                                MASS STORAGE (SOLUTE):    0.000000                   -11640.10    
                            ---------------------------------------------------------------------------
                                              [TOTAL]:    11640.29       mg          -11640.10       mg

                                                          NET (IN - OUT):   0.1933594    
                                                   DISCREPANCY (PERCENT):   0.1661135E-02



 >>>>>>>>>>>>>>>>>>>>>>>>>>>>>>>>>>>>>>>>>>>>>>>>>>>>>>>FOR COMPONENT NO. 03<<<<<<<<<<<<<<<<<<<<<<<<<<<<<<<<<<<<<<<<<<<<<<<<<<<<<<<


                                            -------------------------------------------
                                                      TRANSPORT STEP NO.    1
                                            -------------------------------------------

 TOTAL ELAPSED TIME SINCE BEGINNING OF SIMULATION =   10.00000       d
 .....................................................................

                     CUMMULATIVE MASS BUDGETS AT END OF TRANSPORT STEP    1, TIME STEP    1, STRESS PERIOD    1
                     ------------------------------------------------------------------------------------------

                                                             IN                           OUT
                                                      ----------------             ----------------
                               CONSTANT CONCENTRATION:    0.000000                    0.000000    
                                        CONSTANT HEAD:    0.000000                    0.000000    
                                             RECHARGE:    426.2060                    0.000000    
                                   EVAPOTRANSPIRATION:    0.000000                    0.000000    
                                MASS STORAGE (SOLUTE):    0.000000                   -426.2009    
                            ---------------------------------------------------------------------------
                                              [TOTAL]:    426.2060       mg          -426.2009       mg

                                                          NET (IN - OUT):   0.5096436E-02
                                                   DISCREPANCY (PERCENT):   0.1195775E-02



 >>>>>>>>>>>>>>>>>>>>>>>>>>>>>>>>>>>>>>>>>>>>>>>>>>>>>>>FOR COMPONENT NO. 04<<<<<<<<<<<<<<<<<<<<<<<<<<<<<<<<<<<<<<<<<<<<<<<<<<<<<<<


                                            -------------------------------------------
                                                      TRANSPORT STEP NO.    1
                                            -------------------------------------------

 TOTAL ELAPSED TIME SINCE BEGINNING OF SIMULATION =   10.00000       d
 .....................................................................

                     CUMMULATIVE MASS BUDGETS AT END OF TRANSPORT STEP    1, TIME STEP    1, STRESS PERIOD    1
                     ------------------------------------------------------------------------------------------

                                                             IN                           OUT
                                                      ----------------             ----------------
                               CONSTANT CONCENTRATION:    0.000000                    0.000000    
                                        CONSTANT HEAD:    0.000000                    0.000000    
                                             RECHARGE:    77.86137                    0.000000    
                                   EVAPOTRANSPIRATION:    0.000000                    0.000000    
                                MASS STORAGE (SOLUTE):    0.000000                   -77.85870    
                            ---------------------------------------------------------------------------
                                              [TOTAL]:    77.86137       mg          -77.85870       mg

                                                          NET (IN - OUT):   0.2662659E-02
                                                   DISCREPANCY (PERCENT):   0.3419802E-02


                                          ================================================
                                                         TIME STEP NO.  002
                                          ================================================

 FROM TIME =   10.000     TO    20.000    



     1 CALLS TO GCG PACKAGE FOR TRANSPORT TIME STEP   1 IN FLOW TIME STEP   2 STRESS PERIOD   1
     5 TOTAL ITERATIONS
  MAXIMUM CONCENTRATION CHANGES FOR EACH ITERATION:
  MAX. CHANGE LAYER,ROW,COL MAX. CHANGE LAYER,ROW,COL MAX. CHANGE LAYER,ROW,COL MAX. CHANGE LAYER,ROW,COL MAX. CHANGE LAYER,ROW,COL
 ------------------------------------------------------------------------------------------------------------------------------------
    1.028     (  1,133,185)  0.8190E-01 (  1,129,185)  0.8160E-02 (  1,129,184)  0.5938E-03 (  1,129,185)  0.3135E-04 (  1,127,179)


     1 CALLS TO GCG PACKAGE FOR TRANSPORT TIME STEP   1 IN FLOW TIME STEP   2 STRESS PERIOD   1
     5 TOTAL ITERATIONS
  MAXIMUM CONCENTRATION CHANGES FOR EACH ITERATION:
  MAX. CHANGE LAYER,ROW,COL MAX. CHANGE LAYER,ROW,COL MAX. CHANGE LAYER,ROW,COL MAX. CHANGE LAYER,ROW,COL MAX. CHANGE LAYER,ROW,COL
 ------------------------------------------------------------------------------------------------------------------------------------
    1.028     (  1,133,185)  0.8193E-01 (  1,129,185)  0.8160E-02 (  1,129,184)  0.5907E-03 (  1,129,185)  0.3147E-04 (  1,127,179)


     1 CALLS TO GCG PACKAGE FOR TRANSPORT TIME STEP   1 IN FLOW TIME STEP   2 STRESS PERIOD   1
     5 TOTAL ITERATIONS
  MAXIMUM CONCENTRATION CHANGES FOR EACH ITERATION:
  MAX. CHANGE LAYER,ROW,COL MAX. CHANGE LAYER,ROW,COL MAX. CHANGE LAYER,ROW,COL MAX. CHANGE LAYER,ROW,COL MAX. CHANGE LAYER,ROW,COL
 ------------------------------------------------------------------------------------------------------------------------------------
    1.036     (  1, 30, 95)  0.8737E-01 (  1, 40,113)  0.7153E-02 (  1, 41,114)  0.5281E-03 (  1, 40,115)  0.4327E-04 (  1, 40, 89)


     1 CALLS TO GCG PACKAGE FOR TRANSPORT TIME STEP   1 IN FLOW TIME STEP   2 STRESS PERIOD   1
     5 TOTAL ITERATIONS
  MAXIMUM CONCENTRATION CHANGES FOR EACH ITERATION:
  MAX. CHANGE LAYER,ROW,COL MAX. CHANGE LAYER,ROW,COL MAX. CHANGE LAYER,ROW,COL MAX. CHANGE LAYER,ROW,COL MAX. CHANGE LAYER,ROW,COL
 ------------------------------------------------------------------------------------------------------------------------------------
    1.027     (  1,133,185)  0.8195E-01 (  1,129,185)  0.8043E-02 (  1,129,184)  0.5753E-03 (  1,129,185)  0.3254E-04 (  1,127,179)



 >>>>>>>>>>>>>>>>>>>>>>>>>>>>>>>>>>>>>>>>>>>>>>>>>>>>>>>FOR COMPONENT NO. 01<<<<<<<<<<<<<<<<<<<<<<<<<<<<<<<<<<<<<<<<<<<<<<<<<<<<<<<


                                            -------------------------------------------
                                                      TRANSPORT STEP NO.    1
                                            -------------------------------------------

 TOTAL ELAPSED TIME SINCE BEGINNING OF SIMULATION =   20.00000       d
 .....................................................................

                     CUMMULATIVE MASS BUDGETS AT END OF TRANSPORT STEP    1, TIME STEP    2, STRESS PERIOD    1
                     ------------------------------------------------------------------------------------------

                                                             IN                           OUT
                                                      ----------------             ----------------
                               CONSTANT CONCENTRATION:    0.000000                    0.000000    
                                        CONSTANT HEAD:    0.000000                    0.000000    
                                             RECHARGE:    238871.5                    0.000000    
                                   EVAPOTRANSPIRATION:    0.000000                   0.2089914E-01
                                MASS STORAGE (SOLUTE):    48.41500                   -238918.4    
                            ---------------------------------------------------------------------------
                                              [TOTAL]:    238919.9       mg          -238918.4       mg

                                                          NET (IN - OUT):    1.531250    
                                                   DISCREPANCY (PERCENT):   0.6409072E-03



 >>>>>>>>>>>>>>>>>>>>>>>>>>>>>>>>>>>>>>>>>>>>>>>>>>>>>>>FOR COMPONENT NO. 02<<<<<<<<<<<<<<<<<<<<<<<<<<<<<<<<<<<<<<<<<<<<<<<<<<<<<<<


                                            -------------------------------------------
                                                      TRANSPORT STEP NO.    1
                                            -------------------------------------------

 TOTAL ELAPSED TIME SINCE BEGINNING OF SIMULATION =   20.00000       d
 .....................................................................

                     CUMMULATIVE MASS BUDGETS AT END OF TRANSPORT STEP    1, TIME STEP    2, STRESS PERIOD    1
                     ------------------------------------------------------------------------------------------

                                                             IN                           OUT
                                                      ----------------             ----------------
                               CONSTANT CONCENTRATION:    0.000000                    0.000000    
                                        CONSTANT HEAD:    0.000000                    0.000000    
                                             RECHARGE:    23280.58                    0.000000    
                                   EVAPOTRANSPIRATION:    0.000000                   0.2034152E-02
                                MASS STORAGE (SOLUTE):    4.675702                   -23285.08    
                            ---------------------------------------------------------------------------
                                              [TOTAL]:    23285.26       mg          -23285.08       mg

                                                          NET (IN - OUT):   0.1796875    
                                                   DISCREPANCY (PERCENT):   0.7716821E-03



 >>>>>>>>>>>>>>>>>>>>>>>>>>>>>>>>>>>>>>>>>>>>>>>>>>>>>>>FOR COMPONENT NO. 03<<<<<<<<<<<<<<<<<<<<<<<<<<<<<<<<<<<<<<<<<<<<<<<<<<<<<<<


                                            -------------------------------------------
                                                      TRANSPORT STEP NO.    1
                                            -------------------------------------------

 TOTAL ELAPSED TIME SINCE BEGINNING OF SIMULATION =   20.00000       d
 .....................................................................

                     CUMMULATIVE MASS BUDGETS AT END OF TRANSPORT STEP    1, TIME STEP    2, STRESS PERIOD    1
                     ------------------------------------------------------------------------------------------

                                                             IN                           OUT
                                                      ----------------             ----------------
                               CONSTANT CONCENTRATION:    0.000000                    0.000000    
                                        CONSTANT HEAD:    0.000000                    0.000000    
                                             RECHARGE:    852.4119                    0.000000    
                                   EVAPOTRANSPIRATION:    0.000000                   0.4616262E-04
                                MASS STORAGE (SOLUTE):   0.7075386E-01               -852.4774    
                            ---------------------------------------------------------------------------
                                              [TOTAL]:    852.4827       mg          -852.4773       mg

                                                          NET (IN - OUT):   0.5371094E-02
                                                   DISCREPANCY (PERCENT):   0.6300551E-03



 >>>>>>>>>>>>>>>>>>>>>>>>>>>>>>>>>>>>>>>>>>>>>>>>>>>>>>>FOR COMPONENT NO. 04<<<<<<<<<<<<<<<<<<<<<<<<<<<<<<<<<<<<<<<<<<<<<<<<<<<<<<<


                                            -------------------------------------------
                                                      TRANSPORT STEP NO.    1
                                            -------------------------------------------

 TOTAL ELAPSED TIME SINCE BEGINNING OF SIMULATION =   20.00000       d
 .....................................................................

                     CUMMULATIVE MASS BUDGETS AT END OF TRANSPORT STEP    1, TIME STEP    2, STRESS PERIOD    1
                     ------------------------------------------------------------------------------------------

                                                             IN                           OUT
                                                      ----------------             ----------------
                               CONSTANT CONCENTRATION:    0.000000                    0.000000    
                                        CONSTANT HEAD:    0.000000                    0.000000    
                                             RECHARGE:    155.7227                    0.000000    
                                   EVAPOTRANSPIRATION:    0.000000                   0.3110265E-04
                                MASS STORAGE (SOLUTE):   0.9295493E-01               -155.8129    
                            ---------------------------------------------------------------------------
                                              [TOTAL]:    155.8157       mg          -155.8129       mg

                                                          NET (IN - OUT):   0.2792358E-02
                                                   DISCREPANCY (PERCENT):   0.1792107E-02


                                          ================================================
                                                         TIME STEP NO.  003
                                          ================================================

 FROM TIME =   20.000     TO    30.000    



     1 CALLS TO GCG PACKAGE FOR TRANSPORT TIME STEP   1 IN FLOW TIME STEP   3 STRESS PERIOD   1
     5 TOTAL ITERATIONS
  MAXIMUM CONCENTRATION CHANGES FOR EACH ITERATION:
  MAX. CHANGE LAYER,ROW,COL MAX. CHANGE LAYER,ROW,COL MAX. CHANGE LAYER,ROW,COL MAX. CHANGE LAYER,ROW,COL MAX. CHANGE LAYER,ROW,COL
 ------------------------------------------------------------------------------------------------------------------------------------
   0.5091     (  1,133,185)  0.3682E-01 (  1,129,185)  0.3423E-02 (  1,129,184)  0.2674E-03 (  1,129,185)  0.1323E-04 (  1,127,179)


     1 CALLS TO GCG PACKAGE FOR TRANSPORT TIME STEP   1 IN FLOW TIME STEP   3 STRESS PERIOD   1
     5 TOTAL ITERATIONS
  MAXIMUM CONCENTRATION CHANGES FOR EACH ITERATION:
  MAX. CHANGE LAYER,ROW,COL MAX. CHANGE LAYER,ROW,COL MAX. CHANGE LAYER,ROW,COL MAX. CHANGE LAYER,ROW,COL MAX. CHANGE LAYER,ROW,COL
 ------------------------------------------------------------------------------------------------------------------------------------
   0.5091     (  1,133,185)  0.3684E-01 (  1,129,185)  0.3421E-02 (  1,129,184)  0.2660E-03 (  1,129,185)  0.1335E-04 (  1,127,179)


     1 CALLS TO GCG PACKAGE FOR TRANSPORT TIME STEP   1 IN FLOW TIME STEP   3 STRESS PERIOD   1
     5 TOTAL ITERATIONS
  MAXIMUM CONCENTRATION CHANGES FOR EACH ITERATION:
  MAX. CHANGE LAYER,ROW,COL MAX. CHANGE LAYER,ROW,COL MAX. CHANGE LAYER,ROW,COL MAX. CHANGE LAYER,ROW,COL MAX. CHANGE LAYER,ROW,COL
 ------------------------------------------------------------------------------------------------------------------------------------
   0.5191     (  1, 30, 95)  0.4357E-01 (  1, 40,113)  0.3229E-02 (  1, 41,114)  0.2393E-03 (  1, 40,115)  0.1812E-04 (  1, 40, 89)


     1 CALLS TO GCG PACKAGE FOR TRANSPORT TIME STEP   1 IN FLOW TIME STEP   3 STRESS PERIOD   1
     5 TOTAL ITERATIONS
  MAXIMUM CONCENTRATION CHANGES FOR EACH ITERATION:
  MAX. CHANGE LAYER,ROW,COL MAX. CHANGE LAYER,ROW,COL MAX. CHANGE LAYER,ROW,COL MAX. CHANGE LAYER,ROW,COL MAX. CHANGE LAYER,ROW,COL
 ------------------------------------------------------------------------------------------------------------------------------------
   0.5088     (  1,133,185)  0.3687E-01 (  1,129,185)  0.3366E-02 (  1,129,184)  0.2589E-03 (  1,129,185)  0.1395E-04 (  1,127,179)



 >>>>>>>>>>>>>>>>>>>>>>>>>>>>>>>>>>>>>>>>>>>>>>>>>>>>>>>FOR COMPONENT NO. 01<<<<<<<<<<<<<<<<<<<<<<<<<<<<<<<<<<<<<<<<<<<<<<<<<<<<<<<


                                            -------------------------------------------
                                                      TRANSPORT STEP NO.    1
                                            -------------------------------------------

 TOTAL ELAPSED TIME SINCE BEGINNING OF SIMULATION =   30.00000       d
 .....................................................................

                     CUMMULATIVE MASS BUDGETS AT END OF TRANSPORT STEP    1, TIME STEP    3, STRESS PERIOD    1
                     ------------------------------------------------------------------------------------------

                                                             IN                           OUT
                                                      ----------------             ----------------
                               CONSTANT CONCENTRATION:    0.000000                    0.000000    
                                        CONSTANT HEAD:    0.000000                  -0.4761662E-32
                                             RECHARGE:    358307.2                    0.000000    
                                   EVAPOTRANSPIRATION:    0.000000                   0.9416960E-01
                                MASS STORAGE (SOLUTE):    142.6781                   -358448.4    
                            ---------------------------------------------------------------------------
                                              [TOTAL]:    358449.9       mg          -358448.3       mg

                                                          NET (IN - OUT):    1.562500    
                                                   DISCREPANCY (PERCENT):   0.4359056E-03



 >>>>>>>>>>>>>>>>>>>>>>>>>>>>>>>>>>>>>>>>>>>>>>>>>>>>>>>FOR COMPONENT NO. 02<<<<<<<<<<<<<<<<<<<<<<<<<<<<<<<<<<<<<<<<<<<<<<<<<<<<<<<


                                            -------------------------------------------
                                                      TRANSPORT STEP NO.    1
                                            -------------------------------------------

 TOTAL ELAPSED TIME SINCE BEGINNING OF SIMULATION =   30.00000       d
 .....................................................................

                     CUMMULATIVE MASS BUDGETS AT END OF TRANSPORT STEP    1, TIME STEP    3, STRESS PERIOD    1
                     ------------------------------------------------------------------------------------------

                                                             IN                           OUT
                                                      ----------------             ----------------
                               CONSTANT CONCENTRATION:    0.000000                    0.000000    
                                        CONSTANT HEAD:    0.000000                  -0.2657834E-33
                                             RECHARGE:    34920.88                    0.000000    
                                   EVAPOTRANSPIRATION:    0.000000                   0.9159079E-02
                                MASS STORAGE (SOLUTE):    13.78019                   -34934.44    
                            ---------------------------------------------------------------------------
                                              [TOTAL]:    34934.66       mg          -34934.43       mg

                                                          NET (IN - OUT):   0.2265625    
                                                   DISCREPANCY (PERCENT):   0.6485343E-03



 >>>>>>>>>>>>>>>>>>>>>>>>>>>>>>>>>>>>>>>>>>>>>>>>>>>>>>>FOR COMPONENT NO. 03<<<<<<<<<<<<<<<<<<<<<<<<<<<<<<<<<<<<<<<<<<<<<<<<<<<<<<<


                                            -------------------------------------------
                                                      TRANSPORT STEP NO.    1
                                            -------------------------------------------

 TOTAL ELAPSED TIME SINCE BEGINNING OF SIMULATION =   30.00000       d
 .....................................................................

                     CUMMULATIVE MASS BUDGETS AT END OF TRANSPORT STEP    1, TIME STEP    3, STRESS PERIOD    1
                     ------------------------------------------------------------------------------------------

                                                             IN                           OUT
                                                      ----------------             ----------------
                               CONSTANT CONCENTRATION:    0.000000                    0.000000    
                                        CONSTANT HEAD:    0.000000                    0.000000    
                                             RECHARGE:    1278.618                    0.000000    
                                   EVAPOTRANSPIRATION:    0.000000                   0.2131553E-03
                                MASS STORAGE (SOLUTE):   0.2126427                   -1278.825    
                            ---------------------------------------------------------------------------
                                              [TOTAL]:    1278.831       mg          -1278.824       mg

                                                          NET (IN - OUT):   0.6103516E-02
                                                   DISCREPANCY (PERCENT):   0.4772744E-03



 >>>>>>>>>>>>>>>>>>>>>>>>>>>>>>>>>>>>>>>>>>>>>>>>>>>>>>>FOR COMPONENT NO. 04<<<<<<<<<<<<<<<<<<<<<<<<<<<<<<<<<<<<<<<<<<<<<<<<<<<<<<<


                                            -------------------------------------------
                                                      TRANSPORT STEP NO.    1
                                            -------------------------------------------

 TOTAL ELAPSED TIME SINCE BEGINNING OF SIMULATION =   30.00000       d
 .....................................................................

                     CUMMULATIVE MASS BUDGETS AT END OF TRANSPORT STEP    1, TIME STEP    3, STRESS PERIOD    1
                     ------------------------------------------------------------------------------------------

                                                             IN                           OUT
                                                      ----------------             ----------------
                               CONSTANT CONCENTRATION:    0.000000                    0.000000    
                                        CONSTANT HEAD:    0.000000                    0.000000    
                                             RECHARGE:    233.5841                    0.000000    
                                   EVAPOTRANSPIRATION:    0.000000                   0.1376768E-03
                                MASS STORAGE (SOLUTE):   0.2713110                   -233.8527    
                            ---------------------------------------------------------------------------
                                              [TOTAL]:    233.8554       mg          -233.8526       mg

                                                          NET (IN - OUT):   0.2838135E-02
                                                   DISCREPANCY (PERCENT):   0.1213635E-02


                                          ================================================
                                                         TIME STEP NO.  004
                                          ================================================

 FROM TIME =   30.000     TO    40.000    



     1 CALLS TO GCG PACKAGE FOR TRANSPORT TIME STEP   1 IN FLOW TIME STEP   4 STRESS PERIOD   1
     5 TOTAL ITERATIONS
  MAXIMUM CONCENTRATION CHANGES FOR EACH ITERATION:
  MAX. CHANGE LAYER,ROW,COL MAX. CHANGE LAYER,ROW,COL MAX. CHANGE LAYER,ROW,COL MAX. CHANGE LAYER,ROW,COL MAX. CHANGE LAYER,ROW,COL
 ------------------------------------------------------------------------------------------------------------------------------------
   0.3361     (  1,133,185)  0.2248E-01 (  1,129,185)  0.1916E-02 (  1,129,184)  0.1567E-03 (  1,129,185)  0.7272E-05 (  1,127,179)


     1 CALLS TO GCG PACKAGE FOR TRANSPORT TIME STEP   1 IN FLOW TIME STEP   4 STRESS PERIOD   1
     5 TOTAL ITERATIONS
  MAXIMUM CONCENTRATION CHANGES FOR EACH ITERATION:
  MAX. CHANGE LAYER,ROW,COL MAX. CHANGE LAYER,ROW,COL MAX. CHANGE LAYER,ROW,COL MAX. CHANGE LAYER,ROW,COL MAX. CHANGE LAYER,ROW,COL
 ------------------------------------------------------------------------------------------------------------------------------------
   0.3361     (  1,133,185)  0.2249E-01 (  1,129,185)  0.1913E-02 (  1,129,184)  0.1560E-03 (  1,129,185)  0.7391E-05 (  1,127,179)


     1 CALLS TO GCG PACKAGE FOR TRANSPORT TIME STEP   1 IN FLOW TIME STEP   4 STRESS PERIOD   1
     5 TOTAL ITERATIONS
  MAXIMUM CONCENTRATION CHANGES FOR EACH ITERATION:
  MAX. CHANGE LAYER,ROW,COL MAX. CHANGE LAYER,ROW,COL MAX. CHANGE LAYER,ROW,COL MAX. CHANGE LAYER,ROW,COL MAX. CHANGE LAYER,ROW,COL
 ------------------------------------------------------------------------------------------------------------------------------------
   0.3461     (  1, 30, 95)  0.2887E-01 (  1, 40,113)  0.1960E-02 (  1, 41,114)  0.1441E-03 (  1, 40,115)  0.9894E-05 (  1, 40, 89)


     1 CALLS TO GCG PACKAGE FOR TRANSPORT TIME STEP   1 IN FLOW TIME STEP   4 STRESS PERIOD   1
     5 TOTAL ITERATIONS
  MAXIMUM CONCENTRATION CHANGES FOR EACH ITERATION:
  MAX. CHANGE LAYER,ROW,COL MAX. CHANGE LAYER,ROW,COL MAX. CHANGE LAYER,ROW,COL MAX. CHANGE LAYER,ROW,COL MAX. CHANGE LAYER,ROW,COL
 ------------------------------------------------------------------------------------------------------------------------------------
   0.3359     (  1,133,185)  0.2252E-01 (  1,129,185)  0.1876E-02 (  1,129,184)  0.1517E-03 (  1,129,185)  0.7868E-05 (  1,127,179)



 >>>>>>>>>>>>>>>>>>>>>>>>>>>>>>>>>>>>>>>>>>>>>>>>>>>>>>>FOR COMPONENT NO. 01<<<<<<<<<<<<<<<<<<<<<<<<<<<<<<<<<<<<<<<<<<<<<<<<<<<<<<<


                                            -------------------------------------------
                                                      TRANSPORT STEP NO.    1
                                            -------------------------------------------

 TOTAL ELAPSED TIME SINCE BEGINNING OF SIMULATION =   40.00000       d
 .....................................................................

                     CUMMULATIVE MASS BUDGETS AT END OF TRANSPORT STEP    1, TIME STEP    4, STRESS PERIOD    1
                     ------------------------------------------------------------------------------------------

                                                             IN                           OUT
                                                      ----------------             ----------------
                               CONSTANT CONCENTRATION:    0.000000                    0.000000    
                                        CONSTANT HEAD:    0.000000                   0.8879269E-31
                                             RECHARGE:    477743.0                    0.000000    
                                   EVAPOTRANSPIRATION:    0.000000                   0.2384063    
                                MASS STORAGE (SOLUTE):    273.5562                   -478014.9    
                            ---------------------------------------------------------------------------
                                              [TOTAL]:    478016.5       mg          -478014.6       mg

                                                          NET (IN - OUT):    1.906250    
                                                   DISCREPANCY (PERCENT):   0.3987841E-03



 >>>>>>>>>>>>>>>>>>>>>>>>>>>>>>>>>>>>>>>>>>>>>>>>>>>>>>>FOR COMPONENT NO. 02<<<<<<<<<<<<<<<<<<<<<<<<<<<<<<<<<<<<<<<<<<<<<<<<<<<<<<<


                                            -------------------------------------------
                                                      TRANSPORT STEP NO.    1
                                            -------------------------------------------

 TOTAL ELAPSED TIME SINCE BEGINNING OF SIMULATION =   40.00000       d
 .....................................................................

                     CUMMULATIVE MASS BUDGETS AT END OF TRANSPORT STEP    1, TIME STEP    4, STRESS PERIOD    1
                     ------------------------------------------------------------------------------------------

                                                             IN                           OUT
                                                      ----------------             ----------------
                               CONSTANT CONCENTRATION:    0.000000                    0.000000    
                                        CONSTANT HEAD:    0.000000                   0.5944888E-32
                                             RECHARGE:    46561.17                    0.000000    
                                   EVAPOTRANSPIRATION:    0.000000                   0.2318376E-01
                                MASS STORAGE (SOLUTE):    26.42556                   -46587.34    
                            ---------------------------------------------------------------------------
                                              [TOTAL]:    46587.59       mg          -46587.32       mg

                                                          NET (IN - OUT):   0.2734375    
                                                   DISCREPANCY (PERCENT):   0.5869337E-03



 >>>>>>>>>>>>>>>>>>>>>>>>>>>>>>>>>>>>>>>>>>>>>>>>>>>>>>>FOR COMPONENT NO. 03<<<<<<<<<<<<<<<<<<<<<<<<<<<<<<<<<<<<<<<<<<<<<<<<<<<<<<<


                                            -------------------------------------------
                                                      TRANSPORT STEP NO.    1
                                            -------------------------------------------

 TOTAL ELAPSED TIME SINCE BEGINNING OF SIMULATION =   40.00000       d
 .....................................................................

                     CUMMULATIVE MASS BUDGETS AT END OF TRANSPORT STEP    1, TIME STEP    4, STRESS PERIOD    1
                     ------------------------------------------------------------------------------------------

                                                             IN                           OUT
                                                      ----------------             ----------------
                               CONSTANT CONCENTRATION:    0.000000                    0.000000    
                                        CONSTANT HEAD:    0.000000                   0.9286097E-34
                                             RECHARGE:    1704.824                    0.000000    
                                   EVAPOTRANSPIRATION:    0.000000                   0.5482111E-03
                                MASS STORAGE (SOLUTE):   0.4139675                   -1705.232    
                            ---------------------------------------------------------------------------
                                              [TOTAL]:    1705.238       mg          -1705.232       mg

                                                          NET (IN - OUT):   0.6225586E-02
                                                   DISCREPANCY (PERCENT):   0.3650868E-03



 >>>>>>>>>>>>>>>>>>>>>>>>>>>>>>>>>>>>>>>>>>>>>>>>>>>>>>>FOR COMPONENT NO. 04<<<<<<<<<<<<<<<<<<<<<<<<<<<<<<<<<<<<<<<<<<<<<<<<<<<<<<<


                                            -------------------------------------------
                                                      TRANSPORT STEP NO.    1
                                            -------------------------------------------

 TOTAL ELAPSED TIME SINCE BEGINNING OF SIMULATION =   40.00000       d
 .....................................................................

                     CUMMULATIVE MASS BUDGETS AT END OF TRANSPORT STEP    1, TIME STEP    4, STRESS PERIOD    1
                     ------------------------------------------------------------------------------------------

                                                             IN                           OUT
                                                      ----------------             ----------------
                               CONSTANT CONCENTRATION:    0.000000                    0.000000    
                                        CONSTANT HEAD:    0.000000                    0.000000    
                                             RECHARGE:    311.4455                    0.000000    
                                   EVAPOTRANSPIRATION:    0.000000                   0.3438408E-03
                                MASS STORAGE (SOLUTE):   0.5166019                   -311.9595    
                            ---------------------------------------------------------------------------
                                              [TOTAL]:    311.9621       mg          -311.9592       mg

                                                          NET (IN - OUT):   0.2868652E-02
                                                   DISCREPANCY (PERCENT):   0.9195559E-03


                                          ================================================
                                                         TIME STEP NO.  005
                                          ================================================

 FROM TIME =   40.000     TO    50.000    



     1 CALLS TO GCG PACKAGE FOR TRANSPORT TIME STEP   1 IN FLOW TIME STEP   5 STRESS PERIOD   1
     5 TOTAL ITERATIONS
  MAXIMUM CONCENTRATION CHANGES FOR EACH ITERATION:
  MAX. CHANGE LAYER,ROW,COL MAX. CHANGE LAYER,ROW,COL MAX. CHANGE LAYER,ROW,COL MAX. CHANGE LAYER,ROW,COL MAX. CHANGE LAYER,ROW,COL
 ------------------------------------------------------------------------------------------------------------------------------------
   0.2495     (  1,133,185)  0.1572E-01 (  1,129,185)  0.1222E-02 (  1,129,184)  0.1010E-03 (  1,129,185)  0.4716E-05 (  1,128,185)


     1 CALLS TO GCG PACKAGE FOR TRANSPORT TIME STEP   1 IN FLOW TIME STEP   5 STRESS PERIOD   1
     5 TOTAL ITERATIONS
  MAXIMUM CONCENTRATION CHANGES FOR EACH ITERATION:
  MAX. CHANGE LAYER,ROW,COL MAX. CHANGE LAYER,ROW,COL MAX. CHANGE LAYER,ROW,COL MAX. CHANGE LAYER,ROW,COL MAX. CHANGE LAYER,ROW,COL
 ------------------------------------------------------------------------------------------------------------------------------------
   0.2495     (  1,133,185)  0.1573E-01 (  1,129,185)  0.1219E-02 (  1,129,184)  0.1005E-03 (  1,129,185)  0.4709E-05 (  1,128,185)


     1 CALLS TO GCG PACKAGE FOR TRANSPORT TIME STEP   1 IN FLOW TIME STEP   5 STRESS PERIOD   1
     4 TOTAL ITERATIONS
  MAXIMUM CONCENTRATION CHANGES FOR EACH ITERATION:
  MAX. CHANGE LAYER,ROW,COL MAX. CHANGE LAYER,ROW,COL MAX. CHANGE LAYER,ROW,COL MAX. CHANGE LAYER,ROW,COL MAX. CHANGE LAYER,ROW,COL
 ------------------------------------------------------------------------------------------------------------------------------------
   0.2596     (  1, 30, 95)  0.2149E-01 (  1, 40,113)  0.1354E-02 (  1, 41,114)  0.9765E-04 (  1, 40,115)


     1 CALLS TO GCG PACKAGE FOR TRANSPORT TIME STEP   1 IN FLOW TIME STEP   5 STRESS PERIOD   1
     4 TOTAL ITERATIONS
  MAXIMUM CONCENTRATION CHANGES FOR EACH ITERATION:
  MAX. CHANGE LAYER,ROW,COL MAX. CHANGE LAYER,ROW,COL MAX. CHANGE LAYER,ROW,COL MAX. CHANGE LAYER,ROW,COL MAX. CHANGE LAYER,ROW,COL
 ------------------------------------------------------------------------------------------------------------------------------------
   0.2494     (  1,133,185)  0.1576E-01 (  1,129,185)  0.1191E-02 (  1,129,184)  0.9775E-04 (  1,129,185)



 >>>>>>>>>>>>>>>>>>>>>>>>>>>>>>>>>>>>>>>>>>>>>>>>>>>>>>>FOR COMPONENT NO. 01<<<<<<<<<<<<<<<<<<<<<<<<<<<<<<<<<<<<<<<<<<<<<<<<<<<<<<<


                                            -------------------------------------------
                                                      TRANSPORT STEP NO.    1
                                            -------------------------------------------

 TOTAL ELAPSED TIME SINCE BEGINNING OF SIMULATION =   50.00000       d
 .....................................................................

                     CUMMULATIVE MASS BUDGETS AT END OF TRANSPORT STEP    1, TIME STEP    5, STRESS PERIOD    1
                     ------------------------------------------------------------------------------------------

                                                             IN                           OUT
                                                      ----------------             ----------------
                               CONSTANT CONCENTRATION:    0.000000                    0.000000    
                                        CONSTANT HEAD:    0.000000                   0.2299831E-29
                                             RECHARGE:    597178.7                    0.000000    
                                   EVAPOTRANSPIRATION:    0.000000                   0.4664580    
                                MASS STORAGE (SOLUTE):    432.5334                   -597609.9    
                            ---------------------------------------------------------------------------
                                              [TOTAL]:    597611.2       mg          -597609.5       mg

                                                          NET (IN - OUT):    1.750000    
                                                   DISCREPANCY (PERCENT):   0.2928329E-03



 >>>>>>>>>>>>>>>>>>>>>>>>>>>>>>>>>>>>>>>>>>>>>>>>>>>>>>>FOR COMPONENT NO. 02<<<<<<<<<<<<<<<<<<<<<<<<<<<<<<<<<<<<<<<<<<<<<<<<<<<<<<<


                                            -------------------------------------------
                                                      TRANSPORT STEP NO.    1
                                            -------------------------------------------

 TOTAL ELAPSED TIME SINCE BEGINNING OF SIMULATION =   50.00000       d
 .....................................................................

                     CUMMULATIVE MASS BUDGETS AT END OF TRANSPORT STEP    1, TIME STEP    5, STRESS PERIOD    1
                     ------------------------------------------------------------------------------------------

                                                             IN                           OUT
                                                      ----------------             ----------------
                               CONSTANT CONCENTRATION:    0.000000                    0.000000    
                                        CONSTANT HEAD:    0.000000                   0.1926162E-30
                                             RECHARGE:    58201.46                    0.000000    
                                   EVAPOTRANSPIRATION:    0.000000                   0.4536293E-01
                                MASS STORAGE (SOLUTE):    41.79360                   -58243.02    
                            ---------------------------------------------------------------------------
                                              [TOTAL]:    58243.25       mg          -58242.98       mg

                                                          NET (IN - OUT):   0.2773438    
                                                   DISCREPANCY (PERCENT):   0.4761829E-03



 >>>>>>>>>>>>>>>>>>>>>>>>>>>>>>>>>>>>>>>>>>>>>>>>>>>>>>>FOR COMPONENT NO. 03<<<<<<<<<<<<<<<<<<<<<<<<<<<<<<<<<<<<<<<<<<<<<<<<<<<<<<<


                                            -------------------------------------------
                                                      TRANSPORT STEP NO.    1
                                            -------------------------------------------

 TOTAL ELAPSED TIME SINCE BEGINNING OF SIMULATION =   50.00000       d
 .....................................................................

                     CUMMULATIVE MASS BUDGETS AT END OF TRANSPORT STEP    1, TIME STEP    5, STRESS PERIOD    1
                     ------------------------------------------------------------------------------------------

                                                             IN                           OUT
                                                      ----------------             ----------------
                               CONSTANT CONCENTRATION:    0.000000                    0.000000    
                                        CONSTANT HEAD:    0.000000                   0.5163391E-32
                                             RECHARGE:    2131.030                    0.000000    
                                   EVAPOTRANSPIRATION:    0.000000                   0.1088300E-02
                                MASS STORAGE (SOLUTE):   0.6636779                   -2131.687    
                            ---------------------------------------------------------------------------
                                              [TOTAL]:    2131.693       mg          -2131.686       mg

                                                          NET (IN - OUT):   0.7080078E-02
                                                   DISCREPANCY (PERCENT):   0.3321345E-03



 >>>>>>>>>>>>>>>>>>>>>>>>>>>>>>>>>>>>>>>>>>>>>>>>>>>>>>>FOR COMPONENT NO. 04<<<<<<<<<<<<<<<<<<<<<<<<<<<<<<<<<<<<<<<<<<<<<<<<<<<<<<<


                                            -------------------------------------------
                                                      TRANSPORT STEP NO.    1
                                            -------------------------------------------

 TOTAL ELAPSED TIME SINCE BEGINNING OF SIMULATION =   50.00000       d
 .....................................................................

                     CUMMULATIVE MASS BUDGETS AT END OF TRANSPORT STEP    1, TIME STEP    5, STRESS PERIOD    1
                     ------------------------------------------------------------------------------------------

                                                             IN                           OUT
                                                      ----------------             ----------------
                               CONSTANT CONCENTRATION:    0.000000                    0.000000    
                                        CONSTANT HEAD:    0.000000                    0.000000    
                                             RECHARGE:    389.3068                    0.000000    
                                   EVAPOTRANSPIRATION:    0.000000                   0.6639456E-03
                                MASS STORAGE (SOLUTE):   0.8119236                   -390.1166    
                            ---------------------------------------------------------------------------
                                              [TOTAL]:    390.1187       mg          -390.1159       mg

                                                          NET (IN - OUT):   0.2838135E-02
                                                   DISCREPANCY (PERCENT):   0.7275080E-03


                                          ================================================
                                                         TIME STEP NO.  006
                                          ================================================

 FROM TIME =   50.000     TO    60.000    



     1 CALLS TO GCG PACKAGE FOR TRANSPORT TIME STEP   1 IN FLOW TIME STEP   6 STRESS PERIOD   1
     4 TOTAL ITERATIONS
  MAXIMUM CONCENTRATION CHANGES FOR EACH ITERATION:
  MAX. CHANGE LAYER,ROW,COL MAX. CHANGE LAYER,ROW,COL MAX. CHANGE LAYER,ROW,COL MAX. CHANGE LAYER,ROW,COL MAX. CHANGE LAYER,ROW,COL
 ------------------------------------------------------------------------------------------------------------------------------------
   0.1976     (  1,129,179)  0.1192E-01 (  1,129,185)  0.8488E-03 (  1,129,184)  0.6855E-04 (  1,129,185)


     1 CALLS TO GCG PACKAGE FOR TRANSPORT TIME STEP   1 IN FLOW TIME STEP   6 STRESS PERIOD   1
     4 TOTAL ITERATIONS
  MAXIMUM CONCENTRATION CHANGES FOR EACH ITERATION:
  MAX. CHANGE LAYER,ROW,COL MAX. CHANGE LAYER,ROW,COL MAX. CHANGE LAYER,ROW,COL MAX. CHANGE LAYER,ROW,COL MAX. CHANGE LAYER,ROW,COL
 ------------------------------------------------------------------------------------------------------------------------------------
   0.1976     (  1,129,179)  0.1193E-01 (  1,129,185)  0.8469E-03 (  1,129,184)  0.6819E-04 (  1,129,185)


     1 CALLS TO GCG PACKAGE FOR TRANSPORT TIME STEP   1 IN FLOW TIME STEP   6 STRESS PERIOD   1
     4 TOTAL ITERATIONS
  MAXIMUM CONCENTRATION CHANGES FOR EACH ITERATION:
  MAX. CHANGE LAYER,ROW,COL MAX. CHANGE LAYER,ROW,COL MAX. CHANGE LAYER,ROW,COL MAX. CHANGE LAYER,ROW,COL MAX. CHANGE LAYER,ROW,COL
 ------------------------------------------------------------------------------------------------------------------------------------
   0.2077     (  1, 30, 95)  0.1707E-01 (  1, 40,113)  0.1008E-02 (  1, 41,114)  0.7093E-04 (  1, 40,115)


     1 CALLS TO GCG PACKAGE FOR TRANSPORT TIME STEP   1 IN FLOW TIME STEP   6 STRESS PERIOD   1
     4 TOTAL ITERATIONS
  MAXIMUM CONCENTRATION CHANGES FOR EACH ITERATION:
  MAX. CHANGE LAYER,ROW,COL MAX. CHANGE LAYER,ROW,COL MAX. CHANGE LAYER,ROW,COL MAX. CHANGE LAYER,ROW,COL MAX. CHANGE LAYER,ROW,COL
 ------------------------------------------------------------------------------------------------------------------------------------
   0.1976     (  1,129,179)  0.1195E-01 (  1,129,185)  0.8240E-03 (  1,129,184)  0.6628E-04 (  1,129,185)



 >>>>>>>>>>>>>>>>>>>>>>>>>>>>>>>>>>>>>>>>>>>>>>>>>>>>>>>FOR COMPONENT NO. 01<<<<<<<<<<<<<<<<<<<<<<<<<<<<<<<<<<<<<<<<<<<<<<<<<<<<<<<


                                            -------------------------------------------
                                                      TRANSPORT STEP NO.    1
                                            -------------------------------------------

 TOTAL ELAPSED TIME SINCE BEGINNING OF SIMULATION =   60.00000       d
 .....................................................................

                     CUMMULATIVE MASS BUDGETS AT END OF TRANSPORT STEP    1, TIME STEP    6, STRESS PERIOD    1
                     ------------------------------------------------------------------------------------------

                                                             IN                           OUT
                                                      ----------------             ----------------
                               CONSTANT CONCENTRATION:    0.000000                    0.000000    
                                        CONSTANT HEAD:    0.000000                   0.1603128E-28
                                             RECHARGE:    716614.4                    0.000000    
                                   EVAPOTRANSPIRATION:    0.000000                   0.7860418    
                                MASS STORAGE (SOLUTE):    612.1063                   -717225.3    
                            ---------------------------------------------------------------------------
                                              [TOTAL]:    717226.6       mg          -717224.5       mg

                                                          NET (IN - OUT):    2.062500    
                                                   DISCREPANCY (PERCENT):   0.2875665E-03



 >>>>>>>>>>>>>>>>>>>>>>>>>>>>>>>>>>>>>>>>>>>>>>>>>>>>>>>FOR COMPONENT NO. 02<<<<<<<<<<<<<<<<<<<<<<<<<<<<<<<<<<<<<<<<<<<<<<<<<<<<<<<


                                            -------------------------------------------
                                                      TRANSPORT STEP NO.    1
                                            -------------------------------------------

 TOTAL ELAPSED TIME SINCE BEGINNING OF SIMULATION =   60.00000       d
 .....................................................................

                     CUMMULATIVE MASS BUDGETS AT END OF TRANSPORT STEP    1, TIME STEP    6, STRESS PERIOD    1
                     ------------------------------------------------------------------------------------------

                                                             IN                           OUT
                                                      ----------------             ----------------
                               CONSTANT CONCENTRATION:    0.000000                    0.000000    
                                        CONSTANT HEAD:    0.000000                   0.1442142E-29
                                             RECHARGE:    69841.75                    0.000000    
                                   EVAPOTRANSPIRATION:    0.000000                   0.7645579E-01
                                MASS STORAGE (SOLUTE):    59.16196                   -69900.69    
                            ---------------------------------------------------------------------------
                                              [TOTAL]:    69900.91       mg          -69900.61       mg

                                                          NET (IN - OUT):   0.3046875    
                                                   DISCREPANCY (PERCENT):   0.4358858E-03



 >>>>>>>>>>>>>>>>>>>>>>>>>>>>>>>>>>>>>>>>>>>>>>>>>>>>>>>FOR COMPONENT NO. 03<<<<<<<<<<<<<<<<<<<<<<<<<<<<<<<<<<<<<<<<<<<<<<<<<<<<<<<


                                            -------------------------------------------
                                                      TRANSPORT STEP NO.    1
                                            -------------------------------------------

 TOTAL ELAPSED TIME SINCE BEGINNING OF SIMULATION =   60.00000       d
 .....................................................................

                     CUMMULATIVE MASS BUDGETS AT END OF TRANSPORT STEP    1, TIME STEP    6, STRESS PERIOD    1
                     ------------------------------------------------------------------------------------------

                                                             IN                           OUT
                                                      ----------------             ----------------
                               CONSTANT CONCENTRATION:    0.000000                    0.000000    
                                        CONSTANT HEAD:    0.000000                   0.4811263E-31
                                             RECHARGE:    2557.236                    0.000000    
                                   EVAPOTRANSPIRATION:    0.000000                   0.1860532E-02
                                MASS STORAGE (SOLUTE):   0.9520190                   -2558.180    
                            ---------------------------------------------------------------------------
                                              [TOTAL]:    2558.188       mg          -2558.178       mg

                                                          NET (IN - OUT):   0.9765625E-02
                                                   DISCREPANCY (PERCENT):   0.3817407E-03



 >>>>>>>>>>>>>>>>>>>>>>>>>>>>>>>>>>>>>>>>>>>>>>>>>>>>>>>FOR COMPONENT NO. 04<<<<<<<<<<<<<<<<<<<<<<<<<<<<<<<<<<<<<<<<<<<<<<<<<<<<<<<


                                            -------------------------------------------
                                                      TRANSPORT STEP NO.    1
                                            -------------------------------------------

 TOTAL ELAPSED TIME SINCE BEGINNING OF SIMULATION =   60.00000       d
 .....................................................................

                     CUMMULATIVE MASS BUDGETS AT END OF TRANSPORT STEP    1, TIME STEP    6, STRESS PERIOD    1
                     ------------------------------------------------------------------------------------------

                                                             IN                           OUT
                                                      ----------------             ----------------
                               CONSTANT CONCENTRATION:    0.000000                    0.000000    
                                        CONSTANT HEAD:    0.000000                    0.000000    
                                             RECHARGE:    467.1682                    0.000000    
                                   EVAPOTRANSPIRATION:    0.000000                   0.1104138E-02
                                MASS STORAGE (SOLUTE):    1.142637                   -468.3091    
                            ---------------------------------------------------------------------------
                                              [TOTAL]:    468.3108       mg          -468.3080       mg

                                                          NET (IN - OUT):   0.2807617E-02
                                                   DISCREPANCY (PERCENT):   0.5995219E-03


                                          ================================================
                                                         TIME STEP NO.  007
                                          ================================================

 FROM TIME =   60.000     TO    70.000    



     1 CALLS TO GCG PACKAGE FOR TRANSPORT TIME STEP   1 IN FLOW TIME STEP   7 STRESS PERIOD   1
     4 TOTAL ITERATIONS
  MAXIMUM CONCENTRATION CHANGES FOR EACH ITERATION:
  MAX. CHANGE LAYER,ROW,COL MAX. CHANGE LAYER,ROW,COL MAX. CHANGE LAYER,ROW,COL MAX. CHANGE LAYER,ROW,COL MAX. CHANGE LAYER,ROW,COL
 ------------------------------------------------------------------------------------------------------------------------------------
   0.1641     (  1,129,179)  0.9546E-02 (  1,129,185)  0.6294E-03 (  1,129,184)  0.4989E-04 (  1,128,183)


     1 CALLS TO GCG PACKAGE FOR TRANSPORT TIME STEP   1 IN FLOW TIME STEP   7 STRESS PERIOD   1
     4 TOTAL ITERATIONS
  MAXIMUM CONCENTRATION CHANGES FOR EACH ITERATION:
  MAX. CHANGE LAYER,ROW,COL MAX. CHANGE LAYER,ROW,COL MAX. CHANGE LAYER,ROW,COL MAX. CHANGE LAYER,ROW,COL MAX. CHANGE LAYER,ROW,COL
 ------------------------------------------------------------------------------------------------------------------------------------
   0.1641     (  1,129,179)  0.9554E-02 (  1,129,185)  0.6276E-03 (  1,129,184)  0.4965E-04 (  1,128,183)


     1 CALLS TO GCG PACKAGE FOR TRANSPORT TIME STEP   1 IN FLOW TIME STEP   7 STRESS PERIOD   1
     4 TOTAL ITERATIONS
  MAXIMUM CONCENTRATION CHANGES FOR EACH ITERATION:
  MAX. CHANGE LAYER,ROW,COL MAX. CHANGE LAYER,ROW,COL MAX. CHANGE LAYER,ROW,COL MAX. CHANGE LAYER,ROW,COL MAX. CHANGE LAYER,ROW,COL
 ------------------------------------------------------------------------------------------------------------------------------------
   0.1732     (  1, 30, 95)  0.1412E-01 (  1, 40,113)  0.7905E-03 (  1, 41,114)  0.5399E-04 (  1, 40,115)


     1 CALLS TO GCG PACKAGE FOR TRANSPORT TIME STEP   1 IN FLOW TIME STEP   7 STRESS PERIOD   1
     4 TOTAL ITERATIONS
  MAXIMUM CONCENTRATION CHANGES FOR EACH ITERATION:
  MAX. CHANGE LAYER,ROW,COL MAX. CHANGE LAYER,ROW,COL MAX. CHANGE LAYER,ROW,COL MAX. CHANGE LAYER,ROW,COL MAX. CHANGE LAYER,ROW,COL
 ------------------------------------------------------------------------------------------------------------------------------------
   0.1641     (  1,129,179)  0.9571E-02 (  1,129,185)  0.6083E-03 (  1,129,184)  0.4804E-04 (  1,128,183)



 >>>>>>>>>>>>>>>>>>>>>>>>>>>>>>>>>>>>>>>>>>>>>>>>>>>>>>>FOR COMPONENT NO. 01<<<<<<<<<<<<<<<<<<<<<<<<<<<<<<<<<<<<<<<<<<<<<<<<<<<<<<<


                                            -------------------------------------------
                                                      TRANSPORT STEP NO.    1
                                            -------------------------------------------

 TOTAL ELAPSED TIME SINCE BEGINNING OF SIMULATION =   70.00000       d
 .....................................................................

                     CUMMULATIVE MASS BUDGETS AT END OF TRANSPORT STEP    1, TIME STEP    7, STRESS PERIOD    1
                     ------------------------------------------------------------------------------------------

                                                             IN                           OUT
                                                      ----------------             ----------------
                               CONSTANT CONCENTRATION:    0.000000                    0.000000    
                                        CONSTANT HEAD:    0.000000                   0.5031057E-28
                                             RECHARGE:    836050.2                    0.000000    
                                   EVAPOTRANSPIRATION:    0.000000                    1.200390    
                                MASS STORAGE (SOLUTE):    806.8519                   -836855.8    
                            ---------------------------------------------------------------------------
                                              [TOTAL]:    836857.1       mg          -836854.6       mg

                                                          NET (IN - OUT):    2.500000    
                                                   DISCREPANCY (PERCENT):   0.2987373E-03



 >>>>>>>>>>>>>>>>>>>>>>>>>>>>>>>>>>>>>>>>>>>>>>>>>>>>>>>FOR COMPONENT NO. 02<<<<<<<<<<<<<<<<<<<<<<<<<<<<<<<<<<<<<<<<<<<<<<<<<<<<<<<


                                            -------------------------------------------
                                                      TRANSPORT STEP NO.    1
                                            -------------------------------------------

 TOTAL ELAPSED TIME SINCE BEGINNING OF SIMULATION =   70.00000       d
 .....................................................................

                     CUMMULATIVE MASS BUDGETS AT END OF TRANSPORT STEP    1, TIME STEP    7, STRESS PERIOD    1
                     ------------------------------------------------------------------------------------------

                                                             IN                           OUT
                                                      ----------------             ----------------
                               CONSTANT CONCENTRATION:    0.000000                    0.000000    
                                        CONSTANT HEAD:    0.000000                   0.4662203E-29
                                             RECHARGE:    81482.04                    0.000000    
                                   EVAPOTRANSPIRATION:    0.000000                   0.1167875    
                                MASS STORAGE (SOLUTE):    78.00494                   -81559.79    
                            ---------------------------------------------------------------------------
                                              [TOTAL]:    81560.05       mg          -81559.67       mg

                                                          NET (IN - OUT):   0.3750000    
                                                   DISCREPANCY (PERCENT):   0.4597850E-03



 >>>>>>>>>>>>>>>>>>>>>>>>>>>>>>>>>>>>>>>>>>>>>>>>>>>>>>>FOR COMPONENT NO. 03<<<<<<<<<<<<<<<<<<<<<<<<<<<<<<<<<<<<<<<<<<<<<<<<<<<<<<<


                                            -------------------------------------------
                                                      TRANSPORT STEP NO.    1
                                            -------------------------------------------

 TOTAL ELAPSED TIME SINCE BEGINNING OF SIMULATION =   70.00000       d
 .....................................................................

                     CUMMULATIVE MASS BUDGETS AT END OF TRANSPORT STEP    1, TIME STEP    7, STRESS PERIOD    1
                     ------------------------------------------------------------------------------------------

                                                             IN                           OUT
                                                      ----------------             ----------------
                               CONSTANT CONCENTRATION:    0.000000                    0.000000    
                                        CONSTANT HEAD:    0.000000                   0.1729573E-30
                                             RECHARGE:    2983.442                    0.000000    
                                   EVAPOTRANSPIRATION:    0.000000                   0.2882654E-02
                                MASS STORAGE (SOLUTE):    1.272129                   -2984.705    
                            ---------------------------------------------------------------------------
                                              [TOTAL]:    2984.714       mg          -2984.702       mg

                                                          NET (IN - OUT):   0.1196289E-01
                                                   DISCREPANCY (PERCENT):   0.4008060E-03



 >>>>>>>>>>>>>>>>>>>>>>>>>>>>>>>>>>>>>>>>>>>>>>>>>>>>>>>FOR COMPONENT NO. 04<<<<<<<<<<<<<<<<<<<<<<<<<<<<<<<<<<<<<<<<<<<<<<<<<<<<<<<


                                            -------------------------------------------
                                                      TRANSPORT STEP NO.    1
                                            -------------------------------------------

 TOTAL ELAPSED TIME SINCE BEGINNING OF SIMULATION =   70.00000       d
 .....................................................................

                     CUMMULATIVE MASS BUDGETS AT END OF TRANSPORT STEP    1, TIME STEP    7, STRESS PERIOD    1
                     ------------------------------------------------------------------------------------------

                                                             IN                           OUT
                                                      ----------------             ----------------
                               CONSTANT CONCENTRATION:    0.000000                    0.000000    
                                        CONSTANT HEAD:    0.000000                    0.000000    
                                             RECHARGE:    545.0295                    0.000000    
                                   EVAPOTRANSPIRATION:    0.000000                   0.1663598E-02
                                MASS STORAGE (SOLUTE):    1.497245                   -546.5256    
                            ---------------------------------------------------------------------------
                                              [TOTAL]:    546.5268       mg          -546.5240       mg

                                                          NET (IN - OUT):   0.2807617E-02
                                                   DISCREPANCY (PERCENT):   0.5137213E-03


                                          ================================================
                                                         TIME STEP NO.  008
                                          ================================================

 FROM TIME =   70.000     TO    80.000    



     1 CALLS TO GCG PACKAGE FOR TRANSPORT TIME STEP   1 IN FLOW TIME STEP   8 STRESS PERIOD   1
     4 TOTAL ITERATIONS
  MAXIMUM CONCENTRATION CHANGES FOR EACH ITERATION:
  MAX. CHANGE LAYER,ROW,COL MAX. CHANGE LAYER,ROW,COL MAX. CHANGE LAYER,ROW,COL MAX. CHANGE LAYER,ROW,COL MAX. CHANGE LAYER,ROW,COL
 ------------------------------------------------------------------------------------------------------------------------------------
   0.1401     (  1,129,179)  0.8081E-02 (  1,133,185)  0.4919E-03 (  1,129,184)  0.3827E-04 (  1,130,187)


     1 CALLS TO GCG PACKAGE FOR TRANSPORT TIME STEP   1 IN FLOW TIME STEP   8 STRESS PERIOD   1
     4 TOTAL ITERATIONS
  MAXIMUM CONCENTRATION CHANGES FOR EACH ITERATION:
  MAX. CHANGE LAYER,ROW,COL MAX. CHANGE LAYER,ROW,COL MAX. CHANGE LAYER,ROW,COL MAX. CHANGE LAYER,ROW,COL MAX. CHANGE LAYER,ROW,COL
 ------------------------------------------------------------------------------------------------------------------------------------
   0.1401     (  1,129,179)  0.8067E-02 (  1,133,185)  0.4904E-03 (  1,129,184)  0.3821E-04 (  1,130,187)


     1 CALLS TO GCG PACKAGE FOR TRANSPORT TIME STEP   1 IN FLOW TIME STEP   8 STRESS PERIOD   1
     4 TOTAL ITERATIONS
  MAXIMUM CONCENTRATION CHANGES FOR EACH ITERATION:
  MAX. CHANGE LAYER,ROW,COL MAX. CHANGE LAYER,ROW,COL MAX. CHANGE LAYER,ROW,COL MAX. CHANGE LAYER,ROW,COL MAX. CHANGE LAYER,ROW,COL
 ------------------------------------------------------------------------------------------------------------------------------------
   0.1485     (  1, 30, 95)  0.1203E-01 (  1, 40,113)  0.6433E-03 (  1, 41,114)  0.4482E-04 (  1, 40,114)


     1 CALLS TO GCG PACKAGE FOR TRANSPORT TIME STEP   1 IN FLOW TIME STEP   8 STRESS PERIOD   1
     4 TOTAL ITERATIONS
  MAXIMUM CONCENTRATION CHANGES FOR EACH ITERATION:
  MAX. CHANGE LAYER,ROW,COL MAX. CHANGE LAYER,ROW,COL MAX. CHANGE LAYER,ROW,COL MAX. CHANGE LAYER,ROW,COL MAX. CHANGE LAYER,ROW,COL
 ------------------------------------------------------------------------------------------------------------------------------------
   0.1401     (  1,129,179)  0.8024E-02 (  1,133,185)  0.4734E-03 (  1,129,184)  0.3684E-04 (  1,127,179)



 >>>>>>>>>>>>>>>>>>>>>>>>>>>>>>>>>>>>>>>>>>>>>>>>>>>>>>>FOR COMPONENT NO. 01<<<<<<<<<<<<<<<<<<<<<<<<<<<<<<<<<<<<<<<<<<<<<<<<<<<<<<<


                                            -------------------------------------------
                                                      TRANSPORT STEP NO.    1
                                            -------------------------------------------

 TOTAL ELAPSED TIME SINCE BEGINNING OF SIMULATION =   80.00000       d
 .....................................................................

                     CUMMULATIVE MASS BUDGETS AT END OF TRANSPORT STEP    1, TIME STEP    8, STRESS PERIOD    1
                     ------------------------------------------------------------------------------------------

                                                             IN                           OUT
                                                      ----------------             ----------------
                               CONSTANT CONCENTRATION:    0.000000                    0.000000    
                                        CONSTANT HEAD:    0.000000                  -0.2172092E-28
                                             RECHARGE:    955485.9                    0.000000    
                                   EVAPOTRANSPIRATION:    0.000000                    1.709079    
                                MASS STORAGE (SOLUTE):    1014.954                   -956499.6    
                            ---------------------------------------------------------------------------
                                              [TOTAL]:    956500.9       mg          -956497.9       mg

                                                          NET (IN - OUT):    2.937500    
                                                   DISCREPANCY (PERCENT):   0.3071094E-03



 >>>>>>>>>>>>>>>>>>>>>>>>>>>>>>>>>>>>>>>>>>>>>>>>>>>>>>>FOR COMPONENT NO. 02<<<<<<<<<<<<<<<<<<<<<<<<<<<<<<<<<<<<<<<<<<<<<<<<<<<<<<<


                                            -------------------------------------------
                                                      TRANSPORT STEP NO.    1
                                            -------------------------------------------

 TOTAL ELAPSED TIME SINCE BEGINNING OF SIMULATION =   80.00000       d
 .....................................................................

                     CUMMULATIVE MASS BUDGETS AT END OF TRANSPORT STEP    1, TIME STEP    8, STRESS PERIOD    1
                     ------------------------------------------------------------------------------------------

                                                             IN                           OUT
                                                      ----------------             ----------------
                               CONSTANT CONCENTRATION:    0.000000                    0.000000    
                                        CONSTANT HEAD:    0.000000                  -0.2435527E-29
                                             RECHARGE:    93122.33                    0.000000    
                                   EVAPOTRANSPIRATION:    0.000000                   0.1663265    
                                MASS STORAGE (SOLUTE):    98.13770                   -93220.22    
                            ---------------------------------------------------------------------------
                                              [TOTAL]:    93220.47       mg          -93220.05       mg

                                                          NET (IN - OUT):   0.4140625    
                                                   DISCREPANCY (PERCENT):   0.4441765E-03



 >>>>>>>>>>>>>>>>>>>>>>>>>>>>>>>>>>>>>>>>>>>>>>>>>>>>>>>FOR COMPONENT NO. 03<<<<<<<<<<<<<<<<<<<<<<<<<<<<<<<<<<<<<<<<<<<<<<<<<<<<<<<


                                            -------------------------------------------
                                                      TRANSPORT STEP NO.    1
                                            -------------------------------------------

 TOTAL ELAPSED TIME SINCE BEGINNING OF SIMULATION =   80.00000       d
 .....................................................................

                     CUMMULATIVE MASS BUDGETS AT END OF TRANSPORT STEP    1, TIME STEP    8, STRESS PERIOD    1
                     ------------------------------------------------------------------------------------------

                                                             IN                           OUT
                                                      ----------------             ----------------
                               CONSTANT CONCENTRATION:    0.000000                    0.000000    
                                        CONSTANT HEAD:    0.000000                  -0.1159267E-30
                                             RECHARGE:    3409.648                    0.000000    
                                   EVAPOTRANSPIRATION:    0.000000                   0.4164697E-02
                                MASS STORAGE (SOLUTE):    1.617881                   -3411.256    
                            ---------------------------------------------------------------------------
                                              [TOTAL]:    3411.266       mg          -3411.252       mg

                                                          NET (IN - OUT):   0.1391602E-01
                                                   DISCREPANCY (PERCENT):   0.4079437E-03



 >>>>>>>>>>>>>>>>>>>>>>>>>>>>>>>>>>>>>>>>>>>>>>>>>>>>>>>FOR COMPONENT NO. 04<<<<<<<<<<<<<<<<<<<<<<<<<<<<<<<<<<<<<<<<<<<<<<<<<<<<<<<


                                            -------------------------------------------
                                                      TRANSPORT STEP NO.    1
                                            -------------------------------------------

 TOTAL ELAPSED TIME SINCE BEGINNING OF SIMULATION =   80.00000       d
 .....................................................................

                     CUMMULATIVE MASS BUDGETS AT END OF TRANSPORT STEP    1, TIME STEP    8, STRESS PERIOD    1
                     ------------------------------------------------------------------------------------------

                                                             IN                           OUT
                                                      ----------------             ----------------
                               CONSTANT CONCENTRATION:    0.000000                    0.000000    
                                        CONSTANT HEAD:    0.000000                    0.000000    
                                             RECHARGE:    622.8909                    0.000000    
                                   EVAPOTRANSPIRATION:    0.000000                   0.2335634E-02
                                MASS STORAGE (SOLUTE):    1.873496                   -624.7640    
                            ---------------------------------------------------------------------------
                                              [TOTAL]:    624.7644       mg          -624.7617       mg

                                                          NET (IN - OUT):   0.2746582E-02
                                                   DISCREPANCY (PERCENT):   0.4396198E-03


                                          ================================================
                                                         TIME STEP NO.  009
                                          ================================================

 FROM TIME =   80.000     TO    90.000    



     1 CALLS TO GCG PACKAGE FOR TRANSPORT TIME STEP   1 IN FLOW TIME STEP   9 STRESS PERIOD   1
     4 TOTAL ITERATIONS
  MAXIMUM CONCENTRATION CHANGES FOR EACH ITERATION:
  MAX. CHANGE LAYER,ROW,COL MAX. CHANGE LAYER,ROW,COL MAX. CHANGE LAYER,ROW,COL MAX. CHANGE LAYER,ROW,COL MAX. CHANGE LAYER,ROW,COL
 ------------------------------------------------------------------------------------------------------------------------------------
   0.1221     (  1,129,179)  0.7093E-02 (  1,133,185)  0.4014E-03 (  1,129,184)  0.3231E-04 (  1,130,187)


     1 CALLS TO GCG PACKAGE FOR TRANSPORT TIME STEP   1 IN FLOW TIME STEP   9 STRESS PERIOD   1
     4 TOTAL ITERATIONS
  MAXIMUM CONCENTRATION CHANGES FOR EACH ITERATION:
  MAX. CHANGE LAYER,ROW,COL MAX. CHANGE LAYER,ROW,COL MAX. CHANGE LAYER,ROW,COL MAX. CHANGE LAYER,ROW,COL MAX. CHANGE LAYER,ROW,COL
 ------------------------------------------------------------------------------------------------------------------------------------
   0.1221     (  1,129,179)  0.7080E-02 (  1,133,185)  0.4002E-03 (  1,129,184)  0.3222E-04 (  1,130,187)


     1 CALLS TO GCG PACKAGE FOR TRANSPORT TIME STEP   1 IN FLOW TIME STEP   9 STRESS PERIOD   1
     4 TOTAL ITERATIONS
  MAXIMUM CONCENTRATION CHANGES FOR EACH ITERATION:
  MAX. CHANGE LAYER,ROW,COL MAX. CHANGE LAYER,ROW,COL MAX. CHANGE LAYER,ROW,COL MAX. CHANGE LAYER,ROW,COL MAX. CHANGE LAYER,ROW,COL
 ------------------------------------------------------------------------------------------------------------------------------------
   0.1299     (  1, 30, 95)  0.1045E-01 (  1, 40,113)  0.5381E-03 (  1, 41,114)  0.3803E-04 (  1, 40,114)


     1 CALLS TO GCG PACKAGE FOR TRANSPORT TIME STEP   1 IN FLOW TIME STEP   9 STRESS PERIOD   1
     4 TOTAL ITERATIONS
  MAXIMUM CONCENTRATION CHANGES FOR EACH ITERATION:
  MAX. CHANGE LAYER,ROW,COL MAX. CHANGE LAYER,ROW,COL MAX. CHANGE LAYER,ROW,COL MAX. CHANGE LAYER,ROW,COL MAX. CHANGE LAYER,ROW,COL
 ------------------------------------------------------------------------------------------------------------------------------------
   0.1221     (  1,129,179)  0.7050E-02 (  1,133,185)  0.3849E-03 (  1,129,184)  0.3022E-04 (  1,130,187)



 >>>>>>>>>>>>>>>>>>>>>>>>>>>>>>>>>>>>>>>>>>>>>>>>>>>>>>>FOR COMPONENT NO. 01<<<<<<<<<<<<<<<<<<<<<<<<<<<<<<<<<<<<<<<<<<<<<<<<<<<<<<<


                                            -------------------------------------------
                                                      TRANSPORT STEP NO.    1
                                            -------------------------------------------

 TOTAL ELAPSED TIME SINCE BEGINNING OF SIMULATION =   90.00000       d
 .....................................................................

                     CUMMULATIVE MASS BUDGETS AT END OF TRANSPORT STEP    1, TIME STEP    9, STRESS PERIOD    1
                     ------------------------------------------------------------------------------------------

                                                             IN                           OUT
                                                      ----------------             ----------------
                               CONSTANT CONCENTRATION:    0.000000                    0.000000    
                                        CONSTANT HEAD:    0.000000                  -0.1097162E-26
                                             RECHARGE:    1074922.                    0.000000    
                                   EVAPOTRANSPIRATION:    0.000000                    2.309562    
                                MASS STORAGE (SOLUTE):    1233.043                   -1076154.    
                            ---------------------------------------------------------------------------
                                              [TOTAL]:    1076155.       mg          -1076151.       mg

                                                          NET (IN - OUT):    3.375000    
                                                   DISCREPANCY (PERCENT):   0.3136171E-03



 >>>>>>>>>>>>>>>>>>>>>>>>>>>>>>>>>>>>>>>>>>>>>>>>>>>>>>>FOR COMPONENT NO. 02<<<<<<<<<<<<<<<<<<<<<<<<<<<<<<<<<<<<<<<<<<<<<<<<<<<<<<<


                                            -------------------------------------------
                                                      TRANSPORT STEP NO.    1
                                            -------------------------------------------

 TOTAL ELAPSED TIME SINCE BEGINNING OF SIMULATION =   90.00000       d
 .....................................................................

                     CUMMULATIVE MASS BUDGETS AT END OF TRANSPORT STEP    1, TIME STEP    9, STRESS PERIOD    1
                     ------------------------------------------------------------------------------------------

                                                             IN                           OUT
                                                      ----------------             ----------------
                               CONSTANT CONCENTRATION:    0.000000                    0.000000    
                                        CONSTANT HEAD:    0.000000                  -0.1080033E-27
                                             RECHARGE:    104762.6                    0.000000    
                                   EVAPOTRANSPIRATION:    0.000000                   0.2248377    
                                MASS STORAGE (SOLUTE):    119.2337                   -104881.6    
                            ---------------------------------------------------------------------------
                                              [TOTAL]:    104881.9       mg          -104881.4       mg

                                                          NET (IN - OUT):   0.4531250    
                                                   DISCREPANCY (PERCENT):   0.4320347E-03



 >>>>>>>>>>>>>>>>>>>>>>>>>>>>>>>>>>>>>>>>>>>>>>>>>>>>>>>FOR COMPONENT NO. 03<<<<<<<<<<<<<<<<<<<<<<<<<<<<<<<<<<<<<<<<<<<<<<<<<<<<<<<


                                            -------------------------------------------
                                                      TRANSPORT STEP NO.    1
                                            -------------------------------------------

 TOTAL ELAPSED TIME SINCE BEGINNING OF SIMULATION =   90.00000       d
 .....................................................................

                     CUMMULATIVE MASS BUDGETS AT END OF TRANSPORT STEP    1, TIME STEP    9, STRESS PERIOD    1
                     ------------------------------------------------------------------------------------------

                                                             IN                           OUT
                                                      ----------------             ----------------
                               CONSTANT CONCENTRATION:    0.000000                    0.000000    
                                        CONSTANT HEAD:    0.000000                  -0.4611142E-29
                                             RECHARGE:    3835.854                    0.000000    
                                   EVAPOTRANSPIRATION:    0.000000                   0.5715073E-02
                                MASS STORAGE (SOLUTE):    1.985775                   -3837.830    
                            ---------------------------------------------------------------------------
                                              [TOTAL]:    3837.840       mg          -3837.824       mg

                                                          NET (IN - OUT):   0.1586914E-01
                                                   DISCREPANCY (PERCENT):   0.4134923E-03



 >>>>>>>>>>>>>>>>>>>>>>>>>>>>>>>>>>>>>>>>>>>>>>>>>>>>>>>FOR COMPONENT NO. 04<<<<<<<<<<<<<<<<<<<<<<<<<<<<<<<<<<<<<<<<<<<<<<<<<<<<<<<


                                            -------------------------------------------
                                                      TRANSPORT STEP NO.    1
                                            -------------------------------------------

 TOTAL ELAPSED TIME SINCE BEGINNING OF SIMULATION =   90.00000       d
 .....................................................................

                     CUMMULATIVE MASS BUDGETS AT END OF TRANSPORT STEP    1, TIME STEP    9, STRESS PERIOD    1
                     ------------------------------------------------------------------------------------------

                                                             IN                           OUT
                                                      ----------------             ----------------
                               CONSTANT CONCENTRATION:    0.000000                    0.000000    
                                        CONSTANT HEAD:    0.000000                    0.000000    
                                             RECHARGE:    700.7523                    0.000000    
                                   EVAPOTRANSPIRATION:    0.000000                   0.3108627E-02
                                MASS STORAGE (SOLUTE):    2.263882                   -703.0165    
                            ---------------------------------------------------------------------------
                                              [TOTAL]:    703.0162       mg          -703.0134       mg

                                                          NET (IN - OUT):   0.2746582E-02
                                                   DISCREPANCY (PERCENT):   0.3906862E-03


                                          ================================================
                                                         TIME STEP NO.  010
                                          ================================================

 FROM TIME =   90.000     TO    100.00    



     1 CALLS TO GCG PACKAGE FOR TRANSPORT TIME STEP   1 IN FLOW TIME STEP  10 STRESS PERIOD   1
     4 TOTAL ITERATIONS
  MAXIMUM CONCENTRATION CHANGES FOR EACH ITERATION:
  MAX. CHANGE LAYER,ROW,COL MAX. CHANGE LAYER,ROW,COL MAX. CHANGE LAYER,ROW,COL MAX. CHANGE LAYER,ROW,COL MAX. CHANGE LAYER,ROW,COL
 ------------------------------------------------------------------------------------------------------------------------------------
   0.1080     (  1,129,179)  0.6314E-02 (  1,133,185)  0.3394E-03 (  1,129,184)  0.2781E-04 (  1,130,187)


     1 CALLS TO GCG PACKAGE FOR TRANSPORT TIME STEP   1 IN FLOW TIME STEP  10 STRESS PERIOD   1
     4 TOTAL ITERATIONS
  MAXIMUM CONCENTRATION CHANGES FOR EACH ITERATION:
  MAX. CHANGE LAYER,ROW,COL MAX. CHANGE LAYER,ROW,COL MAX. CHANGE LAYER,ROW,COL MAX. CHANGE LAYER,ROW,COL MAX. CHANGE LAYER,ROW,COL
 ------------------------------------------------------------------------------------------------------------------------------------
   0.1080     (  1,129,179)  0.6301E-02 (  1,133,185)  0.3384E-03 (  1,129,184)  0.2775E-04 (  1,130,187)


     1 CALLS TO GCG PACKAGE FOR TRANSPORT TIME STEP   1 IN FLOW TIME STEP  10 STRESS PERIOD   1
     4 TOTAL ITERATIONS
  MAXIMUM CONCENTRATION CHANGES FOR EACH ITERATION:
  MAX. CHANGE LAYER,ROW,COL MAX. CHANGE LAYER,ROW,COL MAX. CHANGE LAYER,ROW,COL MAX. CHANGE LAYER,ROW,COL MAX. CHANGE LAYER,ROW,COL
 ------------------------------------------------------------------------------------------------------------------------------------
   0.1154     (  1, 30, 95)  0.9223E-02 (  1, 40,113)  0.4628E-03 (  1, 41,114)  0.3314E-04 (  1, 40,114)


     1 CALLS TO GCG PACKAGE FOR TRANSPORT TIME STEP   1 IN FLOW TIME STEP  10 STRESS PERIOD   1
     4 TOTAL ITERATIONS
  MAXIMUM CONCENTRATION CHANGES FOR EACH ITERATION:
  MAX. CHANGE LAYER,ROW,COL MAX. CHANGE LAYER,ROW,COL MAX. CHANGE LAYER,ROW,COL MAX. CHANGE LAYER,ROW,COL MAX. CHANGE LAYER,ROW,COL
 ------------------------------------------------------------------------------------------------------------------------------------
   0.1080     (  1,129,179)  0.6281E-02 (  1,133,185)  0.3246E-03 (  1,129,184)  0.2596E-04 (  1,130,187)



 >>>>>>>>>>>>>>>>>>>>>>>>>>>>>>>>>>>>>>>>>>>>>>>>>>>>>>>FOR COMPONENT NO. 01<<<<<<<<<<<<<<<<<<<<<<<<<<<<<<<<<<<<<<<<<<<<<<<<<<<<<<<


                                            -------------------------------------------
                                                      TRANSPORT STEP NO.    1
                                            -------------------------------------------

 TOTAL ELAPSED TIME SINCE BEGINNING OF SIMULATION =   100.0000       d
 .....................................................................

                     CUMMULATIVE MASS BUDGETS AT END OF TRANSPORT STEP    1, TIME STEP   10, STRESS PERIOD    1
                     ------------------------------------------------------------------------------------------

                                                             IN                           OUT
                                                      ----------------             ----------------
                               CONSTANT CONCENTRATION:    0.000000                    0.000000    
                                        CONSTANT HEAD:    0.000000                  -0.7283305E-26
                                             RECHARGE:    1194357.                    0.000000    
                                   EVAPOTRANSPIRATION:    0.000000                    3.002933    
                                MASS STORAGE (SOLUTE):    1457.878                   -1195814.    
                            ---------------------------------------------------------------------------
                                              [TOTAL]:    1195815.       mg          -1195811.       mg

                                                          NET (IN - OUT):    4.000000    
                                                   DISCREPANCY (PERCENT):   0.3345004E-03



 >>>>>>>>>>>>>>>>>>>>>>>>>>>>>>>>>>>>>>>>>>>>>>>>>>>>>>>FOR COMPONENT NO. 02<<<<<<<<<<<<<<<<<<<<<<<<<<<<<<<<<<<<<<<<<<<<<<<<<<<<<<<


                                            -------------------------------------------
                                                      TRANSPORT STEP NO.    1
                                            -------------------------------------------

 TOTAL ELAPSED TIME SINCE BEGINNING OF SIMULATION =   100.0000       d
 .....................................................................

                     CUMMULATIVE MASS BUDGETS AT END OF TRANSPORT STEP    1, TIME STEP   10, STRESS PERIOD    1
                     ------------------------------------------------------------------------------------------

                                                             IN                           OUT
                                                      ----------------             ----------------
                               CONSTANT CONCENTRATION:    0.000000                    0.000000    
                                        CONSTANT HEAD:    0.000000                  -0.7189221E-27
                                             RECHARGE:    116402.9                    0.000000    
                                   EVAPOTRANSPIRATION:    0.000000                   0.2924297    
                                MASS STORAGE (SOLUTE):    140.9796                   -116543.7    
                            ---------------------------------------------------------------------------
                                              [TOTAL]:    116543.9       mg          -116543.4       mg

                                                          NET (IN - OUT):   0.4843750    
                                                   DISCREPANCY (PERCENT):   0.4156168E-03



 >>>>>>>>>>>>>>>>>>>>>>>>>>>>>>>>>>>>>>>>>>>>>>>>>>>>>>>FOR COMPONENT NO. 03<<<<<<<<<<<<<<<<<<<<<<<<<<<<<<<<<<<<<<<<<<<<<<<<<<<<<<<


                                            -------------------------------------------
                                                      TRANSPORT STEP NO.    1
                                            -------------------------------------------

 TOTAL ELAPSED TIME SINCE BEGINNING OF SIMULATION =   100.0000       d
 .....................................................................

                     CUMMULATIVE MASS BUDGETS AT END OF TRANSPORT STEP    1, TIME STEP   10, STRESS PERIOD    1
                     ------------------------------------------------------------------------------------------

                                                             IN                           OUT
                                                      ----------------             ----------------
                               CONSTANT CONCENTRATION:    0.000000                    0.000000    
                                        CONSTANT HEAD:    0.000000                  -0.3144407E-28
                                             RECHARGE:    4262.060                    0.000000    
                                   EVAPOTRANSPIRATION:    0.000000                   0.7536905E-02
                                MASS STORAGE (SOLUTE):    2.371180                   -4264.422    
                            ---------------------------------------------------------------------------
                                              [TOTAL]:    4264.431       mg          -4264.415       mg

                                                          NET (IN - OUT):   0.1660156E-01
                                                   DISCREPANCY (PERCENT):   0.3893039E-03



 >>>>>>>>>>>>>>>>>>>>>>>>>>>>>>>>>>>>>>>>>>>>>>>>>>>>>>>FOR COMPONENT NO. 04<<<<<<<<<<<<<<<<<<<<<<<<<<<<<<<<<<<<<<<<<<<<<<<<<<<<<<<


                                            -------------------------------------------
                                                      TRANSPORT STEP NO.    1
                                            -------------------------------------------

 TOTAL ELAPSED TIME SINCE BEGINNING OF SIMULATION =   100.0000       d
 .....................................................................

                     CUMMULATIVE MASS BUDGETS AT END OF TRANSPORT STEP    1, TIME STEP   10, STRESS PERIOD    1
                     ------------------------------------------------------------------------------------------

                                                             IN                           OUT
                                                      ----------------             ----------------
                               CONSTANT CONCENTRATION:    0.000000                    0.000000    
                                        CONSTANT HEAD:    0.000000                    0.000000    
                                             RECHARGE:    778.6137                    0.000000    
                                   EVAPOTRANSPIRATION:    0.000000                   0.3984044E-02
                                MASS STORAGE (SOLUTE):    2.662084                   -781.2770    
                            ---------------------------------------------------------------------------
                                              [TOTAL]:    781.2758       mg          -781.2731       mg

                                                          NET (IN - OUT):   0.2746582E-02
                                                   DISCREPANCY (PERCENT):   0.3515515E-03


                                   ++++++++++++++++++++++++++++++++++++++++++++++++++++++++++++++
                                                       STRESS PERIOD NO.  002
                                   ++++++++++++++++++++++++++++++++++++++++++++++++++++++++++++++


 LENGTH OF CURRENT STRESS PERIOD =   900.0000    
 NUMBER OF TIME STEPS FOR CURRENT STRESS PERIOD =   10
 TIME STEP MULTIPLIER USED IN FLOW SOLUTION =   1.000000    

 ***Type of Transport Simulation is TRANSIENT

 USER-SPECIFIED TRANSPORT STEPSIZE =   0.000000       d
 MAXIMUM NUMBER OF TRANSPORT STEPS ALLOWED  IN ONE FLOW TIME STEP =      1000
 MULTIPLIER FOR SUCCESSIVE TRANSPORT STEPS  [USED IN IMPLICIT SCHEMES] =     1.000
 MAXIMUM TRANSPORT STEP SIZE  [USED IN IMPLICIT SCHEMES] =   0.000000       d

 CONCENTRATION OF RECHARGE FLUXES REUSED FROM LAST STRESS PERIOD

 CONCENTRATION OF E. T. FLUXES REUSED FROM LAST STRESS PERIOD

 NO. OF POINT SINKS/SOURCES OF SPECIFIED CONCONCENTRATIONS =    0 IN STRESS PERIOD  2


                                          ================================================
                                                         TIME STEP NO.  001
                                          ================================================

 FROM TIME =   100.00     TO    190.00    



     1 CALLS TO GCG PACKAGE FOR TRANSPORT TIME STEP   1 IN FLOW TIME STEP   1 STRESS PERIOD   2
     9 TOTAL ITERATIONS
  MAXIMUM CONCENTRATION CHANGES FOR EACH ITERATION:
  MAX. CHANGE LAYER,ROW,COL MAX. CHANGE LAYER,ROW,COL MAX. CHANGE LAYER,ROW,COL MAX. CHANGE LAYER,ROW,COL MAX. CHANGE LAYER,ROW,COL
 ------------------------------------------------------------------------------------------------------------------------------------
   0.9437     (  1,133,185)  0.2045     (  1,133,185)  0.8197E-01 (  1,129,183)  0.2883E-01 (  1,129,185)  0.8365E-02 (  1,132,181)
   0.2206E-02 (  1,126,179)  0.5840E-03 (  1,126,181)  0.1765E-03 (  1,130,185)  0.5627E-04 (  1,129,185)


     1 CALLS TO GCG PACKAGE FOR TRANSPORT TIME STEP   1 IN FLOW TIME STEP   1 STRESS PERIOD   2
     9 TOTAL ITERATIONS
  MAXIMUM CONCENTRATION CHANGES FOR EACH ITERATION:
  MAX. CHANGE LAYER,ROW,COL MAX. CHANGE LAYER,ROW,COL MAX. CHANGE LAYER,ROW,COL MAX. CHANGE LAYER,ROW,COL MAX. CHANGE LAYER,ROW,COL
 ------------------------------------------------------------------------------------------------------------------------------------
   0.9440     (  1,133,185)  0.2051     (  1,133,185)  0.8217E-01 (  1,129,183)  0.2883E-01 (  1,129,185)  0.8399E-02 (  1,132,181)
   0.2208E-02 (  1,126,179)  0.5860E-03 (  1,126,181)  0.1743E-03 (  1,130,185)  0.5585E-04 (  1,129,185)


     1 CALLS TO GCG PACKAGE FOR TRANSPORT TIME STEP   1 IN FLOW TIME STEP   1 STRESS PERIOD   2
    10 TOTAL ITERATIONS
  MAXIMUM CONCENTRATION CHANGES FOR EACH ITERATION:
  MAX. CHANGE LAYER,ROW,COL MAX. CHANGE LAYER,ROW,COL MAX. CHANGE LAYER,ROW,COL MAX. CHANGE LAYER,ROW,COL MAX. CHANGE LAYER,ROW,COL
 ------------------------------------------------------------------------------------------------------------------------------------
    1.140     (  1, 78, 93)  0.4421     (  1, 79, 91)  0.9971E-01 (  1, 79, 91)  0.2932E-01 (  1, 40, 99)  0.9539E-02 (  1, 40,113)
   0.2772E-02 (  1, 40,114)  0.1140E-02 (  1, 40, 90)  0.4256E-03 (  1, 40, 89)  0.1279E-03 (  1, 39, 89)  0.3839E-04 (  1, 40, 89)


     1 CALLS TO GCG PACKAGE FOR TRANSPORT TIME STEP   1 IN FLOW TIME STEP   1 STRESS PERIOD   2
     9 TOTAL ITERATIONS
  MAXIMUM CONCENTRATION CHANGES FOR EACH ITERATION:
  MAX. CHANGE LAYER,ROW,COL MAX. CHANGE LAYER,ROW,COL MAX. CHANGE LAYER,ROW,COL MAX. CHANGE LAYER,ROW,COL MAX. CHANGE LAYER,ROW,COL
 ------------------------------------------------------------------------------------------------------------------------------------
   0.9259     (  1,133,185)  0.1919     (  1,130,184)  0.8264E-01 (  1,129,183)  0.2819E-01 (  1,129,185)  0.7876E-02 (  1,132,181)
   0.2321E-02 (  1,126,179)  0.5952E-03 (  1,126,181)  0.1599E-03 (  1,130,185)  0.4941E-04 (  1,129,185)



 >>>>>>>>>>>>>>>>>>>>>>>>>>>>>>>>>>>>>>>>>>>>>>>>>>>>>>>FOR COMPONENT NO. 01<<<<<<<<<<<<<<<<<<<<<<<<<<<<<<<<<<<<<<<<<<<<<<<<<<<<<<<


                                            -------------------------------------------
                                                      TRANSPORT STEP NO.    1
                                            -------------------------------------------

 TOTAL ELAPSED TIME SINCE BEGINNING OF SIMULATION =   190.0000       d
 .....................................................................

                     CUMMULATIVE MASS BUDGETS AT END OF TRANSPORT STEP    1, TIME STEP    1, STRESS PERIOD    2
                     ------------------------------------------------------------------------------------------

                                                             IN                           OUT
                                                      ----------------             ----------------
                               CONSTANT CONCENTRATION:    0.000000                    0.000000    
                                        CONSTANT HEAD:    0.000000                  -0.6394103E-21
                                             RECHARGE:    2269284.                    0.000000    
                                   EVAPOTRANSPIRATION:    0.000000                    4.549177    
                                MASS STORAGE (SOLUTE):    1690.103                   -2270952.    
                            ---------------------------------------------------------------------------
                                              [TOTAL]:    2270974.       mg          -2270948.       mg

                                                          NET (IN - OUT):    25.50000    
                                                   DISCREPANCY (PERCENT):   0.1122873E-02



 >>>>>>>>>>>>>>>>>>>>>>>>>>>>>>>>>>>>>>>>>>>>>>>>>>>>>>>FOR COMPONENT NO. 02<<<<<<<<<<<<<<<<<<<<<<<<<<<<<<<<<<<<<<<<<<<<<<<<<<<<<<<


                                            -------------------------------------------
                                                      TRANSPORT STEP NO.    1
                                            -------------------------------------------

 TOTAL ELAPSED TIME SINCE BEGINNING OF SIMULATION =   190.0000       d
 .....................................................................

                     CUMMULATIVE MASS BUDGETS AT END OF TRANSPORT STEP    1, TIME STEP    1, STRESS PERIOD    2
                     ------------------------------------------------------------------------------------------

                                                             IN                           OUT
                                                      ----------------             ----------------
                               CONSTANT CONCENTRATION:    0.000000                    0.000000    
                                        CONSTANT HEAD:    0.000000                  -0.6395205E-22
                                             RECHARGE:    221165.8                    0.000000    
                                   EVAPOTRANSPIRATION:    0.000000                   0.4438695    
                                MASS STORAGE (SOLUTE):    163.9467                   -221327.5    
                            ---------------------------------------------------------------------------
                                              [TOTAL]:    221329.8       mg          -221327.1       mg

                                                          NET (IN - OUT):    2.718750    
                                                   DISCREPANCY (PERCENT):   0.1228378E-02



 >>>>>>>>>>>>>>>>>>>>>>>>>>>>>>>>>>>>>>>>>>>>>>>>>>>>>>>FOR COMPONENT NO. 03<<<<<<<<<<<<<<<<<<<<<<<<<<<<<<<<<<<<<<<<<<<<<<<<<<<<<<<


                                            -------------------------------------------
                                                      TRANSPORT STEP NO.    1
                                            -------------------------------------------

 TOTAL ELAPSED TIME SINCE BEGINNING OF SIMULATION =   190.0000       d
 .....................................................................

                     CUMMULATIVE MASS BUDGETS AT END OF TRANSPORT STEP    1, TIME STEP    1, STRESS PERIOD    2
                     ------------------------------------------------------------------------------------------

                                                             IN                           OUT
                                                      ----------------             ----------------
                               CONSTANT CONCENTRATION:    0.000000                    0.000000    
                                        CONSTANT HEAD:    0.000000                  -0.3959669E-22
                                             RECHARGE:    8097.918                    0.000000    
                                   EVAPOTRANSPIRATION:    0.000000                   0.1199652E-01
                                MASS STORAGE (SOLUTE):    3.252589                   -8101.071    
                            ---------------------------------------------------------------------------
                                              [TOTAL]:    8101.171       mg          -8101.059       mg

                                                          NET (IN - OUT):   0.1123047    
                                                   DISCREPANCY (PERCENT):   0.1386287E-02



 >>>>>>>>>>>>>>>>>>>>>>>>>>>>>>>>>>>>>>>>>>>>>>>>>>>>>>>FOR COMPONENT NO. 04<<<<<<<<<<<<<<<<<<<<<<<<<<<<<<<<<<<<<<<<<<<<<<<<<<<<<<<


                                            -------------------------------------------
                                                      TRANSPORT STEP NO.    1
                                            -------------------------------------------

 TOTAL ELAPSED TIME SINCE BEGINNING OF SIMULATION =   190.0000       d
 .....................................................................

                     CUMMULATIVE MASS BUDGETS AT END OF TRANSPORT STEP    1, TIME STEP    1, STRESS PERIOD    2
                     ------------------------------------------------------------------------------------------

                                                             IN                           OUT
                                                      ----------------             ----------------
                               CONSTANT CONCENTRATION:    0.000000                    0.000000    
                                        CONSTANT HEAD:    0.000000                    0.000000    
                                             RECHARGE:    1479.366                    0.000000    
                                   EVAPOTRANSPIRATION:    0.000000                   0.5756843E-02
                                MASS STORAGE (SOLUTE):    2.815760                   -1482.177    
                            ---------------------------------------------------------------------------
                                              [TOTAL]:    1482.182       mg          -1482.171       mg

                                                          NET (IN - OUT):   0.1049805E-01
                                                   DISCREPANCY (PERCENT):   0.7082859E-03


                                          ================================================
                                                         TIME STEP NO.  002
                                          ================================================

 FROM TIME =   190.00     TO    280.00    



     1 CALLS TO GCG PACKAGE FOR TRANSPORT TIME STEP   1 IN FLOW TIME STEP   2 STRESS PERIOD   2
     8 TOTAL ITERATIONS
  MAXIMUM CONCENTRATION CHANGES FOR EACH ITERATION:
  MAX. CHANGE LAYER,ROW,COL MAX. CHANGE LAYER,ROW,COL MAX. CHANGE LAYER,ROW,COL MAX. CHANGE LAYER,ROW,COL MAX. CHANGE LAYER,ROW,COL
 ------------------------------------------------------------------------------------------------------------------------------------
   0.4843     (  1,133,185)  0.1111     (  1,133,185)  0.4602E-01 (  1,129,183)  0.1612E-01 (  1,129,185)  0.4054E-02 (  1,132,181)
   0.1136E-02 (  1,126,179)  0.3192E-03 (  1,128,183)  0.8488E-04 (  1,129,183)


     1 CALLS TO GCG PACKAGE FOR TRANSPORT TIME STEP   1 IN FLOW TIME STEP   2 STRESS PERIOD   2
     8 TOTAL ITERATIONS
  MAXIMUM CONCENTRATION CHANGES FOR EACH ITERATION:
  MAX. CHANGE LAYER,ROW,COL MAX. CHANGE LAYER,ROW,COL MAX. CHANGE LAYER,ROW,COL MAX. CHANGE LAYER,ROW,COL MAX. CHANGE LAYER,ROW,COL
 ------------------------------------------------------------------------------------------------------------------------------------
   0.4845     (  1,133,185)  0.1116     (  1,133,185)  0.4613E-01 (  1,129,183)  0.1614E-01 (  1,129,185)  0.4077E-02 (  1,132,181)
   0.1136E-02 (  1,126,179)  0.3205E-03 (  1,126,181)  0.8512E-04 (  1,129,183)


     1 CALLS TO GCG PACKAGE FOR TRANSPORT TIME STEP   1 IN FLOW TIME STEP   2 STRESS PERIOD   2
     9 TOTAL ITERATIONS
  MAXIMUM CONCENTRATION CHANGES FOR EACH ITERATION:
  MAX. CHANGE LAYER,ROW,COL MAX. CHANGE LAYER,ROW,COL MAX. CHANGE LAYER,ROW,COL MAX. CHANGE LAYER,ROW,COL MAX. CHANGE LAYER,ROW,COL
 ------------------------------------------------------------------------------------------------------------------------------------
   0.6042     (  1, 78, 93)  0.2298     (  1, 79, 91)  0.6104E-01 (  1, 79, 91)  0.1451E-01 (  1, 40, 99)  0.4540E-02 (  1, 79, 91)
   0.1371E-02 (  1, 41,114)  0.5523E-03 (  1, 40,114)  0.2053E-03 (  1, 40, 89)  0.6056E-04 (  1, 39, 89)


     1 CALLS TO GCG PACKAGE FOR TRANSPORT TIME STEP   1 IN FLOW TIME STEP   2 STRESS PERIOD   2
     8 TOTAL ITERATIONS
  MAXIMUM CONCENTRATION CHANGES FOR EACH ITERATION:
  MAX. CHANGE LAYER,ROW,COL MAX. CHANGE LAYER,ROW,COL MAX. CHANGE LAYER,ROW,COL MAX. CHANGE LAYER,ROW,COL MAX. CHANGE LAYER,ROW,COL
 ------------------------------------------------------------------------------------------------------------------------------------
   0.4738     (  1,133,185)  0.1077     (  1,130,187)  0.4629E-01 (  1,129,183)  0.1547E-01 (  1,129,185)  0.3866E-02 (  1,128,185)
   0.1201E-02 (  1,126,179)  0.3226E-03 (  1,126,181)  0.7510E-04 (  1,133,185)



 >>>>>>>>>>>>>>>>>>>>>>>>>>>>>>>>>>>>>>>>>>>>>>>>>>>>>>>FOR COMPONENT NO. 01<<<<<<<<<<<<<<<<<<<<<<<<<<<<<<<<<<<<<<<<<<<<<<<<<<<<<<<


                                            -------------------------------------------
                                                      TRANSPORT STEP NO.    1
                                            -------------------------------------------

 TOTAL ELAPSED TIME SINCE BEGINNING OF SIMULATION =   280.0000       d
 .....................................................................

                     CUMMULATIVE MASS BUDGETS AT END OF TRANSPORT STEP    1, TIME STEP    2, STRESS PERIOD    2
                     ------------------------------------------------------------------------------------------

                                                             IN                           OUT
                                                      ----------------             ----------------
                               CONSTANT CONCENTRATION:    0.000000                    0.000000    
                                        CONSTANT HEAD:    0.000000                  -0.1757399E-17
                                             RECHARGE:    3344210.                    0.000000    
                                   EVAPOTRANSPIRATION:    0.000000                    7.109262    
                                MASS STORAGE (SOLUTE):    2154.389                   -3346338.    
                            ---------------------------------------------------------------------------
                                              [TOTAL]:    3346364.       mg          -3346331.       mg

                                                          NET (IN - OUT):    33.00000    
                                                   DISCREPANCY (PERCENT):   0.9861498E-03



 >>>>>>>>>>>>>>>>>>>>>>>>>>>>>>>>>>>>>>>>>>>>>>>>>>>>>>>FOR COMPONENT NO. 02<<<<<<<<<<<<<<<<<<<<<<<<<<<<<<<<<<<<<<<<<<<<<<<<<<<<<<<


                                            -------------------------------------------
                                                      TRANSPORT STEP NO.    1
                                            -------------------------------------------

 TOTAL ELAPSED TIME SINCE BEGINNING OF SIMULATION =   280.0000       d
 .....................................................................

                     CUMMULATIVE MASS BUDGETS AT END OF TRANSPORT STEP    1, TIME STEP    2, STRESS PERIOD    2
                     ------------------------------------------------------------------------------------------

                                                             IN                           OUT
                                                      ----------------             ----------------
                               CONSTANT CONCENTRATION:    0.000000                    0.000000    
                                        CONSTANT HEAD:    0.000000                  -0.1758650E-18
                                             RECHARGE:    325928.8                    0.000000    
                                   EVAPOTRANSPIRATION:    0.000000                   0.6937783    
                                MASS STORAGE (SOLUTE):    209.8065                   -326135.7    
                            ---------------------------------------------------------------------------
                                              [TOTAL]:    326138.6       mg          -326135.0       mg

                                                          NET (IN - OUT):    3.593750    
                                                   DISCREPANCY (PERCENT):   0.1101915E-02



 >>>>>>>>>>>>>>>>>>>>>>>>>>>>>>>>>>>>>>>>>>>>>>>>>>>>>>>FOR COMPONENT NO. 03<<<<<<<<<<<<<<<<<<<<<<<<<<<<<<<<<<<<<<<<<<<<<<<<<<<<<<<


                                            -------------------------------------------
                                                      TRANSPORT STEP NO.    1
                                            -------------------------------------------

 TOTAL ELAPSED TIME SINCE BEGINNING OF SIMULATION =   280.0000       d
 .....................................................................

                     CUMMULATIVE MASS BUDGETS AT END OF TRANSPORT STEP    1, TIME STEP    2, STRESS PERIOD    2
                     ------------------------------------------------------------------------------------------

                                                             IN                           OUT
                                                      ----------------             ----------------
                               CONSTANT CONCENTRATION:    0.000000                    0.000000    
                                        CONSTANT HEAD:    0.000000                  -0.1469968E-19
                                             RECHARGE:    11933.78                    0.000000    
                                   EVAPOTRANSPIRATION:    0.000000                   0.1884553E-01
                                MASS STORAGE (SOLUTE):    5.049814                   -11938.65    
                            ---------------------------------------------------------------------------
                                              [TOTAL]:    11938.83       mg          -11938.63       mg

                                                          NET (IN - OUT):   0.1992188    
                                                   DISCREPANCY (PERCENT):   0.1668677E-02



 >>>>>>>>>>>>>>>>>>>>>>>>>>>>>>>>>>>>>>>>>>>>>>>>>>>>>>>FOR COMPONENT NO. 04<<<<<<<<<<<<<<<<<<<<<<<<<<<<<<<<<<<<<<<<<<<<<<<<<<<<<<<


                                            -------------------------------------------
                                                      TRANSPORT STEP NO.    1
                                            -------------------------------------------

 TOTAL ELAPSED TIME SINCE BEGINNING OF SIMULATION =   280.0000       d
 .....................................................................

                     CUMMULATIVE MASS BUDGETS AT END OF TRANSPORT STEP    1, TIME STEP    2, STRESS PERIOD    2
                     ------------------------------------------------------------------------------------------

                                                             IN                           OUT
                                                      ----------------             ----------------
                               CONSTANT CONCENTRATION:    0.000000                    0.000000    
                                        CONSTANT HEAD:    0.000000                    0.000000    
                                             RECHARGE:    2180.118                    0.000000    
                                   EVAPOTRANSPIRATION:    0.000000                   0.8949910E-02
                                MASS STORAGE (SOLUTE):    3.093270                   -2183.226    
                            ---------------------------------------------------------------------------
                                              [TOTAL]:    2183.211       mg          -2183.217       mg

                                                          NET (IN - OUT):  -0.5371094E-02
                                                   DISCREPANCY (PERCENT):  -0.2460177E-03


                                          ================================================
                                                         TIME STEP NO.  003
                                          ================================================

 FROM TIME =   280.00     TO    370.00    



     1 CALLS TO GCG PACKAGE FOR TRANSPORT TIME STEP   1 IN FLOW TIME STEP   3 STRESS PERIOD   2
     8 TOTAL ITERATIONS
  MAXIMUM CONCENTRATION CHANGES FOR EACH ITERATION:
  MAX. CHANGE LAYER,ROW,COL MAX. CHANGE LAYER,ROW,COL MAX. CHANGE LAYER,ROW,COL MAX. CHANGE LAYER,ROW,COL MAX. CHANGE LAYER,ROW,COL
 ------------------------------------------------------------------------------------------------------------------------------------
   0.3210     (  1,131,182)  0.8082E-01 (  1,130,187)  0.3519E-01 (  1,129,183)  0.1103E-01 (  1,129,185)  0.2712E-02 (  1,128,185)
   0.8394E-03 (  1,129,183)  0.2276E-03 (  1,128,183)  0.6211E-04 (  1,133,185)


     1 CALLS TO GCG PACKAGE FOR TRANSPORT TIME STEP   1 IN FLOW TIME STEP   3 STRESS PERIOD   2
     8 TOTAL ITERATIONS
  MAXIMUM CONCENTRATION CHANGES FOR EACH ITERATION:
  MAX. CHANGE LAYER,ROW,COL MAX. CHANGE LAYER,ROW,COL MAX. CHANGE LAYER,ROW,COL MAX. CHANGE LAYER,ROW,COL MAX. CHANGE LAYER,ROW,COL
 ------------------------------------------------------------------------------------------------------------------------------------
   0.3213     (  1,131,182)  0.8092E-01 (  1,130,187)  0.3527E-01 (  1,129,183)  0.1106E-01 (  1,129,185)  0.2714E-02 (  1,128,185)
   0.8382E-03 (  1,129,183)  0.2297E-03 (  1,128,183)  0.6187E-04 (  1,133,185)


     1 CALLS TO GCG PACKAGE FOR TRANSPORT TIME STEP   1 IN FLOW TIME STEP   3 STRESS PERIOD   2
     9 TOTAL ITERATIONS
  MAXIMUM CONCENTRATION CHANGES FOR EACH ITERATION:
  MAX. CHANGE LAYER,ROW,COL MAX. CHANGE LAYER,ROW,COL MAX. CHANGE LAYER,ROW,COL MAX. CHANGE LAYER,ROW,COL MAX. CHANGE LAYER,ROW,COL
 ------------------------------------------------------------------------------------------------------------------------------------
   0.4075     (  1, 78, 93)  0.1516     (  1, 79, 91)  0.4329E-01 (  1, 79, 91)  0.9356E-02 (  1, 40, 99)  0.3312E-02 (  1, 79, 91)
   0.9539E-03 (  1, 41,114)  0.3750E-03 (  1, 40,114)  0.1339E-03 (  1, 40, 89)  0.3922E-04 (  1, 40,114)


     1 CALLS TO GCG PACKAGE FOR TRANSPORT TIME STEP   1 IN FLOW TIME STEP   3 STRESS PERIOD   2
     8 TOTAL ITERATIONS
  MAXIMUM CONCENTRATION CHANGES FOR EACH ITERATION:
  MAX. CHANGE LAYER,ROW,COL MAX. CHANGE LAYER,ROW,COL MAX. CHANGE LAYER,ROW,COL MAX. CHANGE LAYER,ROW,COL MAX. CHANGE LAYER,ROW,COL
 ------------------------------------------------------------------------------------------------------------------------------------
   0.3132     (  1,131,182)  0.7993E-01 (  1,130,187)  0.3549E-01 (  1,129,183)  0.1049E-01 (  1,129,185)  0.2664E-02 (  1,128,185)
   0.8619E-03 (  1,126,179)  0.2165E-03 (  1,126,181)  0.5674E-04 (  1,133,185)



 >>>>>>>>>>>>>>>>>>>>>>>>>>>>>>>>>>>>>>>>>>>>>>>>>>>>>>>FOR COMPONENT NO. 01<<<<<<<<<<<<<<<<<<<<<<<<<<<<<<<<<<<<<<<<<<<<<<<<<<<<<<<


                                            -------------------------------------------
                                                      TRANSPORT STEP NO.    1
                                            -------------------------------------------

 TOTAL ELAPSED TIME SINCE BEGINNING OF SIMULATION =   370.0000       d
 .....................................................................

                     CUMMULATIVE MASS BUDGETS AT END OF TRANSPORT STEP    1, TIME STEP    3, STRESS PERIOD    2
                     ------------------------------------------------------------------------------------------

                                                             IN                           OUT
                                                      ----------------             ----------------
                               CONSTANT CONCENTRATION:    0.000000                    0.000000    
                                        CONSTANT HEAD:    0.000000                  -0.4024173E-16
                                             RECHARGE:    4419136.                    0.000000    
                                   EVAPOTRANSPIRATION:    0.000000                    11.53139    
                                MASS STORAGE (SOLUTE):    2810.972                   -4421906.    
                            ---------------------------------------------------------------------------
                                              [TOTAL]:    4421946.       mg          -4421895.       mg

                                                          NET (IN - OUT):    51.50000    
                                                   DISCREPANCY (PERCENT):   0.1164652E-02



 >>>>>>>>>>>>>>>>>>>>>>>>>>>>>>>>>>>>>>>>>>>>>>>>>>>>>>>FOR COMPONENT NO. 02<<<<<<<<<<<<<<<<<<<<<<<<<<<<<<<<<<<<<<<<<<<<<<<<<<<<<<<


                                            -------------------------------------------
                                                      TRANSPORT STEP NO.    1
                                            -------------------------------------------

 TOTAL ELAPSED TIME SINCE BEGINNING OF SIMULATION =   370.0000       d
 .....................................................................

                     CUMMULATIVE MASS BUDGETS AT END OF TRANSPORT STEP    1, TIME STEP    3, STRESS PERIOD    2
                     ------------------------------------------------------------------------------------------

                                                             IN                           OUT
                                                      ----------------             ----------------
                               CONSTANT CONCENTRATION:    0.000000                    0.000000    
                                        CONSTANT HEAD:    0.000000                  -0.4026706E-17
                                             RECHARGE:    430691.7                    0.000000    
                                   EVAPOTRANSPIRATION:    0.000000                    1.123977    
                                MASS STORAGE (SOLUTE):    274.4869                   -430961.5    
                            ---------------------------------------------------------------------------
                                              [TOTAL]:    430966.2       mg          -430960.4       mg

                                                          NET (IN - OUT):    5.843750    
                                                   DISCREPANCY (PERCENT):   0.1355974E-02



 >>>>>>>>>>>>>>>>>>>>>>>>>>>>>>>>>>>>>>>>>>>>>>>>>>>>>>>FOR COMPONENT NO. 03<<<<<<<<<<<<<<<<<<<<<<<<<<<<<<<<<<<<<<<<<<<<<<<<<<<<<<<


                                            -------------------------------------------
                                                      TRANSPORT STEP NO.    1
                                            -------------------------------------------

 TOTAL ELAPSED TIME SINCE BEGINNING OF SIMULATION =   370.0000       d
 .....................................................................

                     CUMMULATIVE MASS BUDGETS AT END OF TRANSPORT STEP    1, TIME STEP    3, STRESS PERIOD    2
                     ------------------------------------------------------------------------------------------

                                                             IN                           OUT
                                                      ----------------             ----------------
                               CONSTANT CONCENTRATION:    0.000000                    0.000000    
                                        CONSTANT HEAD:    0.000000                  -0.2727741E-18
                                             RECHARGE:    15769.64                    0.000000    
                                   EVAPOTRANSPIRATION:    0.000000                   0.3020335E-01
                                MASS STORAGE (SOLUTE):    7.597791                   -15776.95    
                            ---------------------------------------------------------------------------
                                              [TOTAL]:    15777.23       mg          -15776.92       mg

                                                          NET (IN - OUT):   0.3134766    
                                                   DISCREPANCY (PERCENT):   0.1986912E-02



 >>>>>>>>>>>>>>>>>>>>>>>>>>>>>>>>>>>>>>>>>>>>>>>>>>>>>>>FOR COMPONENT NO. 04<<<<<<<<<<<<<<<<<<<<<<<<<<<<<<<<<<<<<<<<<<<<<<<<<<<<<<<


                                            -------------------------------------------
                                                      TRANSPORT STEP NO.    1
                                            -------------------------------------------

 TOTAL ELAPSED TIME SINCE BEGINNING OF SIMULATION =   370.0000       d
 .....................................................................

                     CUMMULATIVE MASS BUDGETS AT END OF TRANSPORT STEP    1, TIME STEP    3, STRESS PERIOD    2
                     ------------------------------------------------------------------------------------------

                                                             IN                           OUT
                                                      ----------------             ----------------
                               CONSTANT CONCENTRATION:    0.000000                    0.000000    
                                        CONSTANT HEAD:    0.000000                    0.000000    
                                             RECHARGE:    2880.871                    0.000000    
                                   EVAPOTRANSPIRATION:    0.000000                   0.1460512E-01
                                MASS STORAGE (SOLUTE):    3.463234                   -2884.366    
                            ---------------------------------------------------------------------------
                                              [TOTAL]:    2884.334       mg          -2884.352       mg

                                                          NET (IN - OUT):  -0.1806641E-01
                                                   DISCREPANCY (PERCENT):  -0.6263613E-03


                                          ================================================
                                                         TIME STEP NO.  004
                                          ================================================

 FROM TIME =   370.00     TO    460.00    



     1 CALLS TO GCG PACKAGE FOR TRANSPORT TIME STEP   1 IN FLOW TIME STEP   4 STRESS PERIOD   2
     8 TOTAL ITERATIONS
  MAXIMUM CONCENTRATION CHANGES FOR EACH ITERATION:
  MAX. CHANGE LAYER,ROW,COL MAX. CHANGE LAYER,ROW,COL MAX. CHANGE LAYER,ROW,COL MAX. CHANGE LAYER,ROW,COL MAX. CHANGE LAYER,ROW,COL
 ------------------------------------------------------------------------------------------------------------------------------------
   0.2479     (  1,131,182)  0.6615E-01 (  1,130,187)  0.2968E-01 (  1,130,185)  0.8363E-02 (  1,129,185)  0.2174E-02 (  1,128,185)
   0.6918E-03 (  1,129,183)  0.1790E-03 (  1,128,183)  0.5329E-04 (  1,133,185)


     1 CALLS TO GCG PACKAGE FOR TRANSPORT TIME STEP   1 IN FLOW TIME STEP   4 STRESS PERIOD   2
     8 TOTAL ITERATIONS
  MAXIMUM CONCENTRATION CHANGES FOR EACH ITERATION:
  MAX. CHANGE LAYER,ROW,COL MAX. CHANGE LAYER,ROW,COL MAX. CHANGE LAYER,ROW,COL MAX. CHANGE LAYER,ROW,COL MAX. CHANGE LAYER,ROW,COL
 ------------------------------------------------------------------------------------------------------------------------------------
   0.2482     (  1,131,182)  0.6628E-01 (  1,130,187)  0.2976E-01 (  1,130,185)  0.8385E-02 (  1,129,185)  0.2178E-02 (  1,128,185)
   0.6929E-03 (  1,129,183)  0.1814E-03 (  1,128,183)  0.5341E-04 (  1,133,185)


     1 CALLS TO GCG PACKAGE FOR TRANSPORT TIME STEP   1 IN FLOW TIME STEP   4 STRESS PERIOD   2
     8 TOTAL ITERATIONS
  MAXIMUM CONCENTRATION CHANGES FOR EACH ITERATION:
  MAX. CHANGE LAYER,ROW,COL MAX. CHANGE LAYER,ROW,COL MAX. CHANGE LAYER,ROW,COL MAX. CHANGE LAYER,ROW,COL MAX. CHANGE LAYER,ROW,COL
 ------------------------------------------------------------------------------------------------------------------------------------
   0.3068     (  1, 78, 92)  0.1114     (  1, 79, 91)  0.3276E-01 (  1, 79, 91)  0.6854E-02 (  1, 40, 99)  0.2659E-02 (  1, 79, 91)
   0.7433E-03 (  1, 41,114)  0.2850E-03 (  1, 40,114)  0.9906E-04 (  1, 40, 89)


     1 CALLS TO GCG PACKAGE FOR TRANSPORT TIME STEP   1 IN FLOW TIME STEP   4 STRESS PERIOD   2
     8 TOTAL ITERATIONS
  MAXIMUM CONCENTRATION CHANGES FOR EACH ITERATION:
  MAX. CHANGE LAYER,ROW,COL MAX. CHANGE LAYER,ROW,COL MAX. CHANGE LAYER,ROW,COL MAX. CHANGE LAYER,ROW,COL MAX. CHANGE LAYER,ROW,COL
 ------------------------------------------------------------------------------------------------------------------------------------
   0.2410     (  1,131,182)  0.6470E-01 (  1,130,187)  0.2996E-01 (  1,130,185)  0.7966E-02 (  1,129,185)  0.2126E-02 (  1,128,185)
   0.6952E-03 (  1,126,179)  0.1696E-03 (  1,130,184)  0.4649E-04 (  1,133,185)



 >>>>>>>>>>>>>>>>>>>>>>>>>>>>>>>>>>>>>>>>>>>>>>>>>>>>>>>FOR COMPONENT NO. 01<<<<<<<<<<<<<<<<<<<<<<<<<<<<<<<<<<<<<<<<<<<<<<<<<<<<<<<


                                            -------------------------------------------
                                                      TRANSPORT STEP NO.    1
                                            -------------------------------------------

 TOTAL ELAPSED TIME SINCE BEGINNING OF SIMULATION =   460.0000       d
 .....................................................................

                     CUMMULATIVE MASS BUDGETS AT END OF TRANSPORT STEP    1, TIME STEP    4, STRESS PERIOD    2
                     ------------------------------------------------------------------------------------------

                                                             IN                           OUT
                                                      ----------------             ----------------
                               CONSTANT CONCENTRATION:    0.000000                    0.000000    
                                        CONSTANT HEAD:    0.000000                  -0.4771101E-15
                                             RECHARGE:    5494062.                    0.000000    
                                   EVAPOTRANSPIRATION:    0.000000                    18.17391    
                                MASS STORAGE (SOLUTE):    3596.553                   -5497592.    
                            ---------------------------------------------------------------------------
                                              [TOTAL]:    5497658.       mg          -5497574.       mg

                                                          NET (IN - OUT):    84.50000    
                                                   DISCREPANCY (PERCENT):   0.1537030E-02



 >>>>>>>>>>>>>>>>>>>>>>>>>>>>>>>>>>>>>>>>>>>>>>>>>>>>>>>FOR COMPONENT NO. 02<<<<<<<<<<<<<<<<<<<<<<<<<<<<<<<<<<<<<<<<<<<<<<<<<<<<<<<


                                            -------------------------------------------
                                                      TRANSPORT STEP NO.    1
                                            -------------------------------------------

 TOTAL ELAPSED TIME SINCE BEGINNING OF SIMULATION =   460.0000       d
 .....................................................................

                     CUMMULATIVE MASS BUDGETS AT END OF TRANSPORT STEP    1, TIME STEP    4, STRESS PERIOD    2
                     ------------------------------------------------------------------------------------------

                                                             IN                           OUT
                                                      ----------------             ----------------
                               CONSTANT CONCENTRATION:    0.000000                    0.000000    
                                        CONSTANT HEAD:    0.000000                  -0.4773358E-16
                                             RECHARGE:    535454.7                    0.000000    
                                   EVAPOTRANSPIRATION:    0.000000                    1.768049    
                                MASS STORAGE (SOLUTE):    351.7634                   -535799.6    
                            ---------------------------------------------------------------------------
                                              [TOTAL]:    535806.4       mg          -535797.9       mg

                                                          NET (IN - OUT):    8.562500    
                                                   DISCREPANCY (PERCENT):   0.1598071E-02



 >>>>>>>>>>>>>>>>>>>>>>>>>>>>>>>>>>>>>>>>>>>>>>>>>>>>>>>FOR COMPONENT NO. 03<<<<<<<<<<<<<<<<<<<<<<<<<<<<<<<<<<<<<<<<<<<<<<<<<<<<<<<


                                            -------------------------------------------
                                                      TRANSPORT STEP NO.    1
                                            -------------------------------------------

 TOTAL ELAPSED TIME SINCE BEGINNING OF SIMULATION =   460.0000       d
 .....................................................................

                     CUMMULATIVE MASS BUDGETS AT END OF TRANSPORT STEP    1, TIME STEP    4, STRESS PERIOD    2
                     ------------------------------------------------------------------------------------------

                                                             IN                           OUT
                                                      ----------------             ----------------
                               CONSTANT CONCENTRATION:    0.000000                    0.000000    
                                        CONSTANT HEAD:    0.000000                  -0.2792347E-17
                                             RECHARGE:    19605.49                    0.000000    
                                   EVAPOTRANSPIRATION:    0.000000                   0.4724877E-01
                                MASS STORAGE (SOLUTE):    10.71827                   -19615.87    
                            ---------------------------------------------------------------------------
                                              [TOTAL]:    19616.21       mg          -19615.83       mg

                                                          NET (IN - OUT):   0.3867188    
                                                   DISCREPANCY (PERCENT):   0.1971444E-02



 >>>>>>>>>>>>>>>>>>>>>>>>>>>>>>>>>>>>>>>>>>>>>>>>>>>>>>>FOR COMPONENT NO. 04<<<<<<<<<<<<<<<<<<<<<<<<<<<<<<<<<<<<<<<<<<<<<<<<<<<<<<<


                                            -------------------------------------------
                                                      TRANSPORT STEP NO.    1
                                            -------------------------------------------

 TOTAL ELAPSED TIME SINCE BEGINNING OF SIMULATION =   460.0000       d
 .....................................................................

                     CUMMULATIVE MASS BUDGETS AT END OF TRANSPORT STEP    1, TIME STEP    4, STRESS PERIOD    2
                     ------------------------------------------------------------------------------------------

                                                             IN                           OUT
                                                      ----------------             ----------------
                               CONSTANT CONCENTRATION:    0.000000                    0.000000    
                                        CONSTANT HEAD:    0.000000                    0.000000    
                                             RECHARGE:    3581.623                    0.000000    
                                   EVAPOTRANSPIRATION:    0.000000                   0.2288023E-01
                                MASS STORAGE (SOLUTE):    3.846921                   -3585.521    
                            ---------------------------------------------------------------------------
                                              [TOTAL]:    3585.470       mg          -3585.498       mg

                                                          NET (IN - OUT):  -0.2758789E-01
                                                   DISCREPANCY (PERCENT):  -0.7694329E-03


                                          ================================================
                                                         TIME STEP NO.  005
                                          ================================================

 FROM TIME =   460.00     TO    550.00    



     1 CALLS TO GCG PACKAGE FOR TRANSPORT TIME STEP   1 IN FLOW TIME STEP   5 STRESS PERIOD   2
     8 TOTAL ITERATIONS
  MAXIMUM CONCENTRATION CHANGES FOR EACH ITERATION:
  MAX. CHANGE LAYER,ROW,COL MAX. CHANGE LAYER,ROW,COL MAX. CHANGE LAYER,ROW,COL MAX. CHANGE LAYER,ROW,COL MAX. CHANGE LAYER,ROW,COL
 ------------------------------------------------------------------------------------------------------------------------------------
   0.2046     (  1,131,182)  0.5691E-01 (  1,130,187)  0.2600E-01 (  1,130,185)  0.6858E-02 (  1,129,185)  0.1900E-02 (  1,128,183)
   0.5966E-03 (  1,129,183)  0.1606E-03 (  1,130,184)  0.4613E-04 (  1,133,185)


     1 CALLS TO GCG PACKAGE FOR TRANSPORT TIME STEP   1 IN FLOW TIME STEP   5 STRESS PERIOD   2
     8 TOTAL ITERATIONS
  MAXIMUM CONCENTRATION CHANGES FOR EACH ITERATION:
  MAX. CHANGE LAYER,ROW,COL MAX. CHANGE LAYER,ROW,COL MAX. CHANGE LAYER,ROW,COL MAX. CHANGE LAYER,ROW,COL MAX. CHANGE LAYER,ROW,COL
 ------------------------------------------------------------------------------------------------------------------------------------
   0.2049     (  1,131,182)  0.5706E-01 (  1,130,187)  0.2607E-01 (  1,130,185)  0.6870E-02 (  1,129,185)  0.1889E-02 (  1,128,183)
   0.5987E-03 (  1,129,183)  0.1552E-03 (  1,130,183)  0.4649E-04 (  1,133,185)


     1 CALLS TO GCG PACKAGE FOR TRANSPORT TIME STEP   1 IN FLOW TIME STEP   5 STRESS PERIOD   2
     8 TOTAL ITERATIONS
  MAXIMUM CONCENTRATION CHANGES FOR EACH ITERATION:
  MAX. CHANGE LAYER,ROW,COL MAX. CHANGE LAYER,ROW,COL MAX. CHANGE LAYER,ROW,COL MAX. CHANGE LAYER,ROW,COL MAX. CHANGE LAYER,ROW,COL
 ------------------------------------------------------------------------------------------------------------------------------------
   0.2454     (  1, 78, 92)  0.8727E-01 (  1, 79, 91)  0.2586E-01 (  1, 79, 91)  0.5422E-02 (  1, 40, 99)  0.2228E-02 (  1, 79, 91)
   0.6181E-03 (  1, 41,114)  0.2301E-03 (  1, 40,114)  0.7844E-04 (  1, 40, 89)


     1 CALLS TO GCG PACKAGE FOR TRANSPORT TIME STEP   1 IN FLOW TIME STEP   5 STRESS PERIOD   2
     8 TOTAL ITERATIONS
  MAXIMUM CONCENTRATION CHANGES FOR EACH ITERATION:
  MAX. CHANGE LAYER,ROW,COL MAX. CHANGE LAYER,ROW,COL MAX. CHANGE LAYER,ROW,COL MAX. CHANGE LAYER,ROW,COL MAX. CHANGE LAYER,ROW,COL
 ------------------------------------------------------------------------------------------------------------------------------------
   0.1981     (  1,131,182)  0.5514E-01 (  1,130,187)  0.2619E-01 (  1,130,185)  0.6597E-02 (  1,129,185)  0.1824E-02 (  1,128,185)
   0.5937E-03 (  1,126,179)  0.1528E-03 (  1,130,184)  0.3874E-04 (  1,133,185)



 >>>>>>>>>>>>>>>>>>>>>>>>>>>>>>>>>>>>>>>>>>>>>>>>>>>>>>>FOR COMPONENT NO. 01<<<<<<<<<<<<<<<<<<<<<<<<<<<<<<<<<<<<<<<<<<<<<<<<<<<<<<<


                                            -------------------------------------------
                                                      TRANSPORT STEP NO.    1
                                            -------------------------------------------

 TOTAL ELAPSED TIME SINCE BEGINNING OF SIMULATION =   550.0000       d
 .....................................................................

                     CUMMULATIVE MASS BUDGETS AT END OF TRANSPORT STEP    1, TIME STEP    5, STRESS PERIOD    2
                     ------------------------------------------------------------------------------------------

                                                             IN                           OUT
                                                      ----------------             ----------------
                               CONSTANT CONCENTRATION:    0.000000                    0.000000    
                                        CONSTANT HEAD:    0.000000                  -0.3856527E-14
                                             RECHARGE:    6568988.                    0.000000    
                                   EVAPOTRANSPIRATION:    0.000000                    27.08182    
                                MASS STORAGE (SOLUTE):    4507.969                   -6573394.    
                            ---------------------------------------------------------------------------
                                              [TOTAL]:    6573496.       mg          -6573366.       mg

                                                          NET (IN - OUT):    129.0000    
                                                   DISCREPANCY (PERCENT):   0.1962445E-02



 >>>>>>>>>>>>>>>>>>>>>>>>>>>>>>>>>>>>>>>>>>>>>>>>>>>>>>>FOR COMPONENT NO. 02<<<<<<<<<<<<<<<<<<<<<<<<<<<<<<<<<<<<<<<<<<<<<<<<<<<<<<<


                                            -------------------------------------------
                                                      TRANSPORT STEP NO.    1
                                            -------------------------------------------

 TOTAL ELAPSED TIME SINCE BEGINNING OF SIMULATION =   550.0000       d
 .....................................................................

                     CUMMULATIVE MASS BUDGETS AT END OF TRANSPORT STEP    1, TIME STEP    5, STRESS PERIOD    2
                     ------------------------------------------------------------------------------------------

                                                             IN                           OUT
                                                      ----------------             ----------------
                               CONSTANT CONCENTRATION:    0.000000                    0.000000    
                                        CONSTANT HEAD:    0.000000                  -0.3857766E-15
                                             RECHARGE:    640217.6                    0.000000    
                                   EVAPOTRANSPIRATION:    0.000000                    2.629591    
                                MASS STORAGE (SOLUTE):    441.2023                   -640651.0    
                            ---------------------------------------------------------------------------
                                              [TOTAL]:    640658.8       mg          -640648.4       mg

                                                          NET (IN - OUT):    10.43750    
                                                   DISCREPANCY (PERCENT):   0.1629196E-02



 >>>>>>>>>>>>>>>>>>>>>>>>>>>>>>>>>>>>>>>>>>>>>>>>>>>>>>>FOR COMPONENT NO. 03<<<<<<<<<<<<<<<<<<<<<<<<<<<<<<<<<<<<<<<<<<<<<<<<<<<<<<<


                                            -------------------------------------------
                                                      TRANSPORT STEP NO.    1
                                            -------------------------------------------

 TOTAL ELAPSED TIME SINCE BEGINNING OF SIMULATION =   550.0000       d
 .....................................................................

                     CUMMULATIVE MASS BUDGETS AT END OF TRANSPORT STEP    1, TIME STEP    5, STRESS PERIOD    2
                     ------------------------------------------------------------------------------------------

                                                             IN                           OUT
                                                      ----------------             ----------------
                               CONSTANT CONCENTRATION:    0.000000                    0.000000    
                                        CONSTANT HEAD:    0.000000                  -0.2089352E-16
                                             RECHARGE:    23441.35                    0.000000    
                                   EVAPOTRANSPIRATION:    0.000000                   0.7068254E-01
                                MASS STORAGE (SOLUTE):    14.26324                   -23455.27    
                            ---------------------------------------------------------------------------
                                              [TOTAL]:    23455.62       mg          -23455.20       mg

                                                          NET (IN - OUT):   0.4179688    
                                                   DISCREPANCY (PERCENT):   0.1781972E-02



 >>>>>>>>>>>>>>>>>>>>>>>>>>>>>>>>>>>>>>>>>>>>>>>>>>>>>>>FOR COMPONENT NO. 04<<<<<<<<<<<<<<<<<<<<<<<<<<<<<<<<<<<<<<<<<<<<<<<<<<<<<<<


                                            -------------------------------------------
                                                      TRANSPORT STEP NO.    1
                                            -------------------------------------------

 TOTAL ELAPSED TIME SINCE BEGINNING OF SIMULATION =   550.0000       d
 .....................................................................

                     CUMMULATIVE MASS BUDGETS AT END OF TRANSPORT STEP    1, TIME STEP    5, STRESS PERIOD    2
                     ------------------------------------------------------------------------------------------

                                                             IN                           OUT
                                                      ----------------             ----------------
                               CONSTANT CONCENTRATION:    0.000000                    0.000000    
                                        CONSTANT HEAD:    0.000000                    0.000000    
                                             RECHARGE:    4282.375                    0.000000    
                                   EVAPOTRANSPIRATION:    0.000000                   0.3336997E-01
                                MASS STORAGE (SOLUTE):    4.317643                   -4286.761    
                            ---------------------------------------------------------------------------
                                              [TOTAL]:    4286.693       mg          -4286.728       mg

                                                          NET (IN - OUT):  -0.3466797E-01
                                                   DISCREPANCY (PERCENT):  -0.8087312E-03


                                          ================================================
                                                         TIME STEP NO.  006
                                          ================================================

 FROM TIME =   550.00     TO    640.00    



     1 CALLS TO GCG PACKAGE FOR TRANSPORT TIME STEP   1 IN FLOW TIME STEP   6 STRESS PERIOD   2
     8 TOTAL ITERATIONS
  MAXIMUM CONCENTRATION CHANGES FOR EACH ITERATION:
  MAX. CHANGE LAYER,ROW,COL MAX. CHANGE LAYER,ROW,COL MAX. CHANGE LAYER,ROW,COL MAX. CHANGE LAYER,ROW,COL MAX. CHANGE LAYER,ROW,COL
 ------------------------------------------------------------------------------------------------------------------------------------
   0.1766     (  1,131,182)  0.5070E-01 (  1,130,187)  0.2312E-01 (  1,130,185)  0.5963E-02 (  1,129,185)  0.1745E-02 (  1,128,183)
   0.5323E-03 (  1,129,183)  0.1503E-03 (  1,130,184)  0.4017E-04 (  1,133,185)


     1 CALLS TO GCG PACKAGE FOR TRANSPORT TIME STEP   1 IN FLOW TIME STEP   6 STRESS PERIOD   2
     8 TOTAL ITERATIONS
  MAXIMUM CONCENTRATION CHANGES FOR EACH ITERATION:
  MAX. CHANGE LAYER,ROW,COL MAX. CHANGE LAYER,ROW,COL MAX. CHANGE LAYER,ROW,COL MAX. CHANGE LAYER,ROW,COL MAX. CHANGE LAYER,ROW,COL
 ------------------------------------------------------------------------------------------------------------------------------------
   0.1770     (  1,131,182)  0.5086E-01 (  1,130,187)  0.2320E-01 (  1,130,185)  0.5966E-02 (  1,129,185)  0.1737E-02 (  1,128,183)
   0.5348E-03 (  1,129,183)  0.1457E-03 (  1,130,184)  0.4077E-04 (  1,133,185)


     1 CALLS TO GCG PACKAGE FOR TRANSPORT TIME STEP   1 IN FLOW TIME STEP   6 STRESS PERIOD   2
     8 TOTAL ITERATIONS
  MAXIMUM CONCENTRATION CHANGES FOR EACH ITERATION:
  MAX. CHANGE LAYER,ROW,COL MAX. CHANGE LAYER,ROW,COL MAX. CHANGE LAYER,ROW,COL MAX. CHANGE LAYER,ROW,COL MAX. CHANGE LAYER,ROW,COL
 ------------------------------------------------------------------------------------------------------------------------------------
   0.2038     (  1, 78, 92)  0.7136E-01 (  1, 79, 91)  0.2106E-01 (  1, 79, 91)  0.4511E-02 (  1, 40, 99)  0.1909E-02 (  1, 79, 91)
   0.5319E-03 (  1, 41,114)  0.1926E-03 (  1, 40,114)  0.6664E-04 (  1, 40,113)


     1 CALLS TO GCG PACKAGE FOR TRANSPORT TIME STEP   1 IN FLOW TIME STEP   6 STRESS PERIOD   2
     8 TOTAL ITERATIONS
  MAXIMUM CONCENTRATION CHANGES FOR EACH ITERATION:
  MAX. CHANGE LAYER,ROW,COL MAX. CHANGE LAYER,ROW,COL MAX. CHANGE LAYER,ROW,COL MAX. CHANGE LAYER,ROW,COL MAX. CHANGE LAYER,ROW,COL
 ------------------------------------------------------------------------------------------------------------------------------------
   0.1703     (  1,131,182)  0.4871E-01 (  1,130,187)  0.2325E-01 (  1,130,185)  0.5818E-02 (  1,129,185)  0.1648E-02 (  1,128,183)
   0.5266E-03 (  1,126,179)  0.1409E-03 (  1,130,184)  0.3400E-04 (  1,126,181)



 >>>>>>>>>>>>>>>>>>>>>>>>>>>>>>>>>>>>>>>>>>>>>>>>>>>>>>>FOR COMPONENT NO. 01<<<<<<<<<<<<<<<<<<<<<<<<<<<<<<<<<<<<<<<<<<<<<<<<<<<<<<<


                                            -------------------------------------------
                                                      TRANSPORT STEP NO.    1
                                            -------------------------------------------

 TOTAL ELAPSED TIME SINCE BEGINNING OF SIMULATION =   640.0000       d
 .....................................................................

                     CUMMULATIVE MASS BUDGETS AT END OF TRANSPORT STEP    1, TIME STEP    6, STRESS PERIOD    2
                     ------------------------------------------------------------------------------------------

                                                             IN                           OUT
                                                      ----------------             ----------------
                               CONSTANT CONCENTRATION:    0.000000                    0.000000    
                                        CONSTANT HEAD:    0.000000                  -0.2347129E-13
                                             RECHARGE:    7643914.                    0.000000    
                                   EVAPOTRANSPIRATION:    0.000000                    38.17434    
                                MASS STORAGE (SOLUTE):    5526.021                   -7649306.    
                            ---------------------------------------------------------------------------
                                              [TOTAL]:    7649440.       mg          -7649268.       mg

                                                          NET (IN - OUT):    171.0000    
                                                   DISCREPANCY (PERCENT):   0.2235483E-02



 >>>>>>>>>>>>>>>>>>>>>>>>>>>>>>>>>>>>>>>>>>>>>>>>>>>>>>>FOR COMPONENT NO. 02<<<<<<<<<<<<<<<<<<<<<<<<<<<<<<<<<<<<<<<<<<<<<<<<<<<<<<<


                                            -------------------------------------------
                                                      TRANSPORT STEP NO.    1
                                            -------------------------------------------

 TOTAL ELAPSED TIME SINCE BEGINNING OF SIMULATION =   640.0000       d
 .....................................................................

                     CUMMULATIVE MASS BUDGETS AT END OF TRANSPORT STEP    1, TIME STEP    6, STRESS PERIOD    2
                     ------------------------------------------------------------------------------------------

                                                             IN                           OUT
                                                      ----------------             ----------------
                               CONSTANT CONCENTRATION:    0.000000                    0.000000    
                                        CONSTANT HEAD:    0.000000                  -0.2347603E-14
                                             RECHARGE:    744980.6                    0.000000    
                                   EVAPOTRANSPIRATION:    0.000000                    3.699912    
                                MASS STORAGE (SOLUTE):    540.9167                   -745513.8    
                            ---------------------------------------------------------------------------
                                              [TOTAL]:    745521.5       mg          -745510.1       mg

                                                          NET (IN - OUT):    11.43750    
                                                   DISCREPANCY (PERCENT):   0.1534173E-02



 >>>>>>>>>>>>>>>>>>>>>>>>>>>>>>>>>>>>>>>>>>>>>>>>>>>>>>>FOR COMPONENT NO. 03<<<<<<<<<<<<<<<<<<<<<<<<<<<<<<<<<<<<<<<<<<<<<<<<<<<<<<<


                                            -------------------------------------------
                                                      TRANSPORT STEP NO.    1
                                            -------------------------------------------

 TOTAL ELAPSED TIME SINCE BEGINNING OF SIMULATION =   640.0000       d
 .....................................................................

                     CUMMULATIVE MASS BUDGETS AT END OF TRANSPORT STEP    1, TIME STEP    6, STRESS PERIOD    2
                     ------------------------------------------------------------------------------------------

                                                             IN                           OUT
                                                      ----------------             ----------------
                               CONSTANT CONCENTRATION:    0.000000                    0.000000    
                                        CONSTANT HEAD:    0.000000                  -0.1221890E-15
                                             RECHARGE:    27277.21                    0.000000    
                                   EVAPOTRANSPIRATION:    0.000000                   0.1005121    
                                MASS STORAGE (SOLUTE):    18.12187                   -27294.99    
                            ---------------------------------------------------------------------------
                                              [TOTAL]:    27295.33       mg          -27294.89       mg

                                                          NET (IN - OUT):   0.4394531    
                                                   DISCREPANCY (PERCENT):   0.1610007E-02



 >>>>>>>>>>>>>>>>>>>>>>>>>>>>>>>>>>>>>>>>>>>>>>>>>>>>>>>FOR COMPONENT NO. 04<<<<<<<<<<<<<<<<<<<<<<<<<<<<<<<<<<<<<<<<<<<<<<<<<<<<<<<


                                            -------------------------------------------
                                                      TRANSPORT STEP NO.    1
                                            -------------------------------------------

 TOTAL ELAPSED TIME SINCE BEGINNING OF SIMULATION =   640.0000       d
 .....................................................................

                     CUMMULATIVE MASS BUDGETS AT END OF TRANSPORT STEP    1, TIME STEP    6, STRESS PERIOD    2
                     ------------------------------------------------------------------------------------------

                                                             IN                           OUT
                                                      ----------------             ----------------
                               CONSTANT CONCENTRATION:    0.000000                    0.000000    
                                        CONSTANT HEAD:    0.000000                    0.000000    
                                             RECHARGE:    4983.128                    0.000000    
                                   EVAPOTRANSPIRATION:    0.000000                   0.4574000E-01
                                MASS STORAGE (SOLUTE):    4.888551                   -4988.103    
                            ---------------------------------------------------------------------------
                                              [TOTAL]:    4988.017       mg          -4988.057       mg

                                                          NET (IN - OUT):  -0.4003906E-01
                                                   DISCREPANCY (PERCENT):  -0.8027019E-03


                                          ================================================
                                                         TIME STEP NO.  007
                                          ================================================

 FROM TIME =   640.00     TO    730.00    



     1 CALLS TO GCG PACKAGE FOR TRANSPORT TIME STEP   1 IN FLOW TIME STEP   7 STRESS PERIOD   2
     8 TOTAL ITERATIONS
  MAXIMUM CONCENTRATION CHANGES FOR EACH ITERATION:
  MAX. CHANGE LAYER,ROW,COL MAX. CHANGE LAYER,ROW,COL MAX. CHANGE LAYER,ROW,COL MAX. CHANGE LAYER,ROW,COL MAX. CHANGE LAYER,ROW,COL
 ------------------------------------------------------------------------------------------------------------------------------------
   0.1575     (  1,131,182)  0.4661E-01 (  1,129,185)  0.2087E-01 (  1,130,185)  0.5411E-02 (  1,129,185)  0.1622E-02 (  1,128,183)
   0.4870E-03 (  1,129,183)  0.1426E-03 (  1,130,184)  0.3773E-04 (  1,129,183)


     1 CALLS TO GCG PACKAGE FOR TRANSPORT TIME STEP   1 IN FLOW TIME STEP   7 STRESS PERIOD   2
     8 TOTAL ITERATIONS
  MAXIMUM CONCENTRATION CHANGES FOR EACH ITERATION:
  MAX. CHANGE LAYER,ROW,COL MAX. CHANGE LAYER,ROW,COL MAX. CHANGE LAYER,ROW,COL MAX. CHANGE LAYER,ROW,COL MAX. CHANGE LAYER,ROW,COL
 ------------------------------------------------------------------------------------------------------------------------------------
   0.1578     (  1,131,182)  0.4678E-01 (  1,129,185)  0.2095E-01 (  1,130,185)  0.5407E-02 (  1,129,185)  0.1617E-02 (  1,128,183)
   0.4898E-03 (  1,129,183)  0.1384E-03 (  1,130,184)  0.3815E-04 (  1,129,183)


     1 CALLS TO GCG PACKAGE FOR TRANSPORT TIME STEP   1 IN FLOW TIME STEP   7 STRESS PERIOD   2
     8 TOTAL ITERATIONS
  MAXIMUM CONCENTRATION CHANGES FOR EACH ITERATION:
  MAX. CHANGE LAYER,ROW,COL MAX. CHANGE LAYER,ROW,COL MAX. CHANGE LAYER,ROW,COL MAX. CHANGE LAYER,ROW,COL MAX. CHANGE LAYER,ROW,COL
 ------------------------------------------------------------------------------------------------------------------------------------
   0.1744     (  1, 77, 93)  0.6021E-01 (  1, 79, 91)  0.1759E-01 (  1, 79, 91)  0.3886E-02 (  1, 40, 99)  0.1659E-02 (  1, 79, 91)
   0.4695E-03 (  1, 41,114)  0.1664E-03 (  1, 40,114)  0.5853E-04 (  1, 40,113)


     1 CALLS TO GCG PACKAGE FOR TRANSPORT TIME STEP   1 IN FLOW TIME STEP   7 STRESS PERIOD   2
     8 TOTAL ITERATIONS
  MAXIMUM CONCENTRATION CHANGES FOR EACH ITERATION:
  MAX. CHANGE LAYER,ROW,COL MAX. CHANGE LAYER,ROW,COL MAX. CHANGE LAYER,ROW,COL MAX. CHANGE LAYER,ROW,COL MAX. CHANGE LAYER,ROW,COL
 ------------------------------------------------------------------------------------------------------------------------------------
   0.1512     (  1,131,182)  0.4442E-01 (  1,129,185)  0.2097E-01 (  1,130,185)  0.5362E-02 (  1,129,185)  0.1514E-02 (  1,128,183)
   0.4812E-03 (  1,126,179)  0.1320E-03 (  1,130,184)  0.3102E-04 (  1,126,181)



 >>>>>>>>>>>>>>>>>>>>>>>>>>>>>>>>>>>>>>>>>>>>>>>>>>>>>>>FOR COMPONENT NO. 01<<<<<<<<<<<<<<<<<<<<<<<<<<<<<<<<<<<<<<<<<<<<<<<<<<<<<<<


                                            -------------------------------------------
                                                      TRANSPORT STEP NO.    1
                                            -------------------------------------------

 TOTAL ELAPSED TIME SINCE BEGINNING OF SIMULATION =   730.0000       d
 .....................................................................

                     CUMMULATIVE MASS BUDGETS AT END OF TRANSPORT STEP    1, TIME STEP    7, STRESS PERIOD    2
                     ------------------------------------------------------------------------------------------

                                                             IN                           OUT
                                                      ----------------             ----------------
                               CONSTANT CONCENTRATION:    0.000000                    0.000000    
                                        CONSTANT HEAD:    0.000000                  -0.1141920E-12
                                             RECHARGE:    8718840.                    0.000000    
                                   EVAPOTRANSPIRATION:    0.000000                    52.30103    
                                MASS STORAGE (SOLUTE):    6632.830                   -8725322.    
                            ---------------------------------------------------------------------------
                                              [TOTAL]:    8725473.       mg          -8725270.       mg

                                                          NET (IN - OUT):    203.0000    
                                                   DISCREPANCY (PERCENT):   0.2326548E-02



 >>>>>>>>>>>>>>>>>>>>>>>>>>>>>>>>>>>>>>>>>>>>>>>>>>>>>>>FOR COMPONENT NO. 02<<<<<<<<<<<<<<<<<<<<<<<<<<<<<<<<<<<<<<<<<<<<<<<<<<<<<<<


                                            -------------------------------------------
                                                      TRANSPORT STEP NO.    1
                                            -------------------------------------------

 TOTAL ELAPSED TIME SINCE BEGINNING OF SIMULATION =   730.0000       d
 .....................................................................

                     CUMMULATIVE MASS BUDGETS AT END OF TRANSPORT STEP    1, TIME STEP    7, STRESS PERIOD    2
                     ------------------------------------------------------------------------------------------

                                                             IN                           OUT
                                                      ----------------             ----------------
                               CONSTANT CONCENTRATION:    0.000000                    0.000000    
                                        CONSTANT HEAD:    0.000000                  -0.1142060E-13
                                             RECHARGE:    849743.5                    0.000000    
                                   EVAPOTRANSPIRATION:    0.000000                    5.059641    
                                MASS STORAGE (SOLUTE):    649.1776                   -850385.9    
                            ---------------------------------------------------------------------------
                                              [TOTAL]:    850392.7       mg          -850380.8       mg

                                                          NET (IN - OUT):    11.87500    
                                                   DISCREPANCY (PERCENT):   0.1396423E-02



 >>>>>>>>>>>>>>>>>>>>>>>>>>>>>>>>>>>>>>>>>>>>>>>>>>>>>>>FOR COMPONENT NO. 03<<<<<<<<<<<<<<<<<<<<<<<<<<<<<<<<<<<<<<<<<<<<<<<<<<<<<<<


                                            -------------------------------------------
                                                      TRANSPORT STEP NO.    1
                                            -------------------------------------------

 TOTAL ELAPSED TIME SINCE BEGINNING OF SIMULATION =   730.0000       d
 .....................................................................

                     CUMMULATIVE MASS BUDGETS AT END OF TRANSPORT STEP    1, TIME STEP    7, STRESS PERIOD    2
                     ------------------------------------------------------------------------------------------

                                                             IN                           OUT
                                                      ----------------             ----------------
                               CONSTANT CONCENTRATION:    0.000000                    0.000000    
                                        CONSTANT HEAD:    0.000000                  -0.5825546E-15
                                             RECHARGE:    31113.07                    0.000000    
                                   EVAPOTRANSPIRATION:    0.000000                   0.1367287    
                                MASS STORAGE (SOLUTE):    22.21209                   -31134.96    
                            ---------------------------------------------------------------------------
                                              [TOTAL]:    31135.28       mg          -31134.83       mg

                                                          NET (IN - OUT):   0.4550781    
                                                   DISCREPANCY (PERCENT):   0.1461626E-02



 >>>>>>>>>>>>>>>>>>>>>>>>>>>>>>>>>>>>>>>>>>>>>>>>>>>>>>>FOR COMPONENT NO. 04<<<<<<<<<<<<<<<<<<<<<<<<<<<<<<<<<<<<<<<<<<<<<<<<<<<<<<<


                                            -------------------------------------------
                                                      TRANSPORT STEP NO.    1
                                            -------------------------------------------

 TOTAL ELAPSED TIME SINCE BEGINNING OF SIMULATION =   730.0000       d
 .....................................................................

                     CUMMULATIVE MASS BUDGETS AT END OF TRANSPORT STEP    1, TIME STEP    7, STRESS PERIOD    2
                     ------------------------------------------------------------------------------------------

                                                             IN                           OUT
                                                      ----------------             ----------------
                               CONSTANT CONCENTRATION:    0.000000                    0.000000    
                                        CONSTANT HEAD:    0.000000                    0.000000    
                                             RECHARGE:    5683.880                    0.000000    
                                   EVAPOTRANSPIRATION:    0.000000                   0.6227219E-01
                                MASS STORAGE (SOLUTE):    5.561265                   -5689.547    
                            ---------------------------------------------------------------------------
                                              [TOTAL]:    5689.441       mg          -5689.485       mg

                                                          NET (IN - OUT):  -0.4345703E-01
                                                   DISCREPANCY (PERCENT):  -0.7638161E-03


                                          ================================================
                                                         TIME STEP NO.  008
                                          ================================================

 FROM TIME =   730.00     TO    820.00    



     1 CALLS TO GCG PACKAGE FOR TRANSPORT TIME STEP   1 IN FLOW TIME STEP   8 STRESS PERIOD   2
     8 TOTAL ITERATIONS
  MAXIMUM CONCENTRATION CHANGES FOR EACH ITERATION:
  MAX. CHANGE LAYER,ROW,COL MAX. CHANGE LAYER,ROW,COL MAX. CHANGE LAYER,ROW,COL MAX. CHANGE LAYER,ROW,COL MAX. CHANGE LAYER,ROW,COL
 ------------------------------------------------------------------------------------------------------------------------------------
   0.1438     (  1,131,182)  0.4365E-01 (  1,129,185)  0.1911E-01 (  1,130,185)  0.5056E-02 (  1,129,185)  0.1523E-02 (  1,128,183)
   0.4535E-03 (  1,129,183)  0.1366E-03 (  1,130,184)  0.3624E-04 (  1,129,183)


     1 CALLS TO GCG PACKAGE FOR TRANSPORT TIME STEP   1 IN FLOW TIME STEP   8 STRESS PERIOD   2
     8 TOTAL ITERATIONS
  MAXIMUM CONCENTRATION CHANGES FOR EACH ITERATION:
  MAX. CHANGE LAYER,ROW,COL MAX. CHANGE LAYER,ROW,COL MAX. CHANGE LAYER,ROW,COL MAX. CHANGE LAYER,ROW,COL MAX. CHANGE LAYER,ROW,COL
 ------------------------------------------------------------------------------------------------------------------------------------
   0.1441     (  1,131,182)  0.4382E-01 (  1,129,185)  0.1918E-01 (  1,130,185)  0.5047E-02 (  1,129,185)  0.1519E-02 (  1,128,183)
   0.4563E-03 (  1,129,183)  0.1328E-03 (  1,130,184)  0.3666E-04 (  1,129,183)


     1 CALLS TO GCG PACKAGE FOR TRANSPORT TIME STEP   1 IN FLOW TIME STEP   8 STRESS PERIOD   2
     8 TOTAL ITERATIONS
  MAXIMUM CONCENTRATION CHANGES FOR EACH ITERATION:
  MAX. CHANGE LAYER,ROW,COL MAX. CHANGE LAYER,ROW,COL MAX. CHANGE LAYER,ROW,COL MAX. CHANGE LAYER,ROW,COL MAX. CHANGE LAYER,ROW,COL
 ------------------------------------------------------------------------------------------------------------------------------------
   0.1526     (  1, 77, 93)  0.5203E-01 (  1, 79, 91)  0.1501E-01 (  1, 79, 91)  0.3430E-02 (  1, 40, 99)  0.1459E-02 (  1, 79, 91)
   0.4212E-03 (  1, 41,114)  0.1467E-03 (  1, 40,114)  0.5269E-04 (  1, 40,113)


     1 CALLS TO GCG PACKAGE FOR TRANSPORT TIME STEP   1 IN FLOW TIME STEP   8 STRESS PERIOD   2
     8 TOTAL ITERATIONS
  MAXIMUM CONCENTRATION CHANGES FOR EACH ITERATION:
  MAX. CHANGE LAYER,ROW,COL MAX. CHANGE LAYER,ROW,COL MAX. CHANGE LAYER,ROW,COL MAX. CHANGE LAYER,ROW,COL MAX. CHANGE LAYER,ROW,COL
 ------------------------------------------------------------------------------------------------------------------------------------
   0.1375     (  1,131,182)  0.4125E-01 (  1,129,185)  0.1918E-01 (  1,130,185)  0.5087E-02 (  1,129,185)  0.1408E-02 (  1,128,183)
   0.4495E-03 (  1,126,179)  0.1251E-03 (  1,130,184)  0.2933E-04 (  1,129,183)



 >>>>>>>>>>>>>>>>>>>>>>>>>>>>>>>>>>>>>>>>>>>>>>>>>>>>>>>FOR COMPONENT NO. 01<<<<<<<<<<<<<<<<<<<<<<<<<<<<<<<<<<<<<<<<<<<<<<<<<<<<<<<


                                            -------------------------------------------
                                                      TRANSPORT STEP NO.    1
                                            -------------------------------------------

 TOTAL ELAPSED TIME SINCE BEGINNING OF SIMULATION =   820.0000       d
 .....................................................................

                     CUMMULATIVE MASS BUDGETS AT END OF TRANSPORT STEP    1, TIME STEP    8, STRESS PERIOD    2
                     ------------------------------------------------------------------------------------------

                                                             IN                           OUT
                                                      ----------------             ----------------
                               CONSTANT CONCENTRATION:    0.000000                    0.000000    
                                        CONSTANT HEAD:    0.000000                  -0.4649833E-12
                                             RECHARGE:    9793766.                    0.000000    
                                   EVAPOTRANSPIRATION:    0.000000                    69.83987    
                                MASS STORAGE (SOLUTE):    7802.722                   -9801422.    
                            ---------------------------------------------------------------------------
                                              [TOTAL]:    9801569.       mg          -9801352.       mg

                                                          NET (IN - OUT):    217.0000    
                                                   DISCREPANCY (PERCENT):   0.2213956E-02



 >>>>>>>>>>>>>>>>>>>>>>>>>>>>>>>>>>>>>>>>>>>>>>>>>>>>>>>FOR COMPONENT NO. 02<<<<<<<<<<<<<<<<<<<<<<<<<<<<<<<<<<<<<<<<<<<<<<<<<<<<<<<


                                            -------------------------------------------
                                                      TRANSPORT STEP NO.    1
                                            -------------------------------------------

 TOTAL ELAPSED TIME SINCE BEGINNING OF SIMULATION =   820.0000       d
 .....................................................................

                     CUMMULATIVE MASS BUDGETS AT END OF TRANSPORT STEP    1, TIME STEP    8, STRESS PERIOD    2
                     ------------------------------------------------------------------------------------------

                                                             IN                           OUT
                                                      ----------------             ----------------
                               CONSTANT CONCENTRATION:    0.000000                    0.000000    
                                        CONSTANT HEAD:    0.000000                  -0.4650158E-13
                                             RECHARGE:    954506.4                    0.000000    
                                   EVAPOTRANSPIRATION:    0.000000                    6.744341    
                                MASS STORAGE (SOLUTE):    763.4216                   -955264.8    
                            ---------------------------------------------------------------------------
                                              [TOTAL]:    955269.9       mg          -955258.1       mg

                                                          NET (IN - OUT):    11.81250    
                                                   DISCREPANCY (PERCENT):   0.1236569E-02



 >>>>>>>>>>>>>>>>>>>>>>>>>>>>>>>>>>>>>>>>>>>>>>>>>>>>>>>FOR COMPONENT NO. 03<<<<<<<<<<<<<<<<<<<<<<<<<<<<<<<<<<<<<<<<<<<<<<<<<<<<<<<


                                            -------------------------------------------
                                                      TRANSPORT STEP NO.    1
                                            -------------------------------------------

 TOTAL ELAPSED TIME SINCE BEGINNING OF SIMULATION =   820.0000       d
 .....................................................................

                     CUMMULATIVE MASS BUDGETS AT END OF TRANSPORT STEP    1, TIME STEP    8, STRESS PERIOD    2
                     ------------------------------------------------------------------------------------------

                                                             IN                           OUT
                                                      ----------------             ----------------
                               CONSTANT CONCENTRATION:    0.000000                    0.000000    
                                        CONSTANT HEAD:    0.000000                  -0.2347172E-14
                                             RECHARGE:    34948.93                    0.000000    
                                   EVAPOTRANSPIRATION:    0.000000                   0.1792541    
                                MASS STORAGE (SOLUTE):    26.45939                   -34975.09    
                            ---------------------------------------------------------------------------
                                              [TOTAL]:    34975.39       mg          -34974.91       mg

                                                          NET (IN - OUT):   0.4843750    
                                                   DISCREPANCY (PERCENT):   0.1384912E-02



 >>>>>>>>>>>>>>>>>>>>>>>>>>>>>>>>>>>>>>>>>>>>>>>>>>>>>>>FOR COMPONENT NO. 04<<<<<<<<<<<<<<<<<<<<<<<<<<<<<<<<<<<<<<<<<<<<<<<<<<<<<<<


                                            -------------------------------------------
                                                      TRANSPORT STEP NO.    1
                                            -------------------------------------------

 TOTAL ELAPSED TIME SINCE BEGINNING OF SIMULATION =   820.0000       d
 .....................................................................

                     CUMMULATIVE MASS BUDGETS AT END OF TRANSPORT STEP    1, TIME STEP    8, STRESS PERIOD    2
                     ------------------------------------------------------------------------------------------

                                                             IN                           OUT
                                                      ----------------             ----------------
                               CONSTANT CONCENTRATION:    0.000000                    0.000000    
                                        CONSTANT HEAD:    0.000000                    0.000000    
                                             RECHARGE:    6384.633                    0.000000    
                                   EVAPOTRANSPIRATION:    0.000000                   0.8400406E-01
                                MASS STORAGE (SOLUTE):    6.301374                   -6391.066    
                            ---------------------------------------------------------------------------
                                              [TOTAL]:    6390.934       mg          -6390.982       mg

                                                          NET (IN - OUT):  -0.4785156E-01
                                                   DISCREPANCY (PERCENT):  -0.7487385E-03


                                          ================================================
                                                         TIME STEP NO.  009
                                          ================================================

 FROM TIME =   820.00     TO    910.00    



     1 CALLS TO GCG PACKAGE FOR TRANSPORT TIME STEP   1 IN FLOW TIME STEP   9 STRESS PERIOD   2
     8 TOTAL ITERATIONS
  MAXIMUM CONCENTRATION CHANGES FOR EACH ITERATION:
  MAX. CHANGE LAYER,ROW,COL MAX. CHANGE LAYER,ROW,COL MAX. CHANGE LAYER,ROW,COL MAX. CHANGE LAYER,ROW,COL MAX. CHANGE LAYER,ROW,COL
 ------------------------------------------------------------------------------------------------------------------------------------
   0.1336     (  1,131,182)  0.4138E-01 (  1,129,185)  0.1771E-01 (  1,130,185)  0.4822E-02 (  1,129,185)  0.1439E-02 (  1,128,183)
   0.4261E-03 (  1,129,183)  0.1318E-03 (  1,130,184)  0.3499E-04 (  1,129,183)


     1 CALLS TO GCG PACKAGE FOR TRANSPORT TIME STEP   1 IN FLOW TIME STEP   9 STRESS PERIOD   2
     8 TOTAL ITERATIONS
  MAXIMUM CONCENTRATION CHANGES FOR EACH ITERATION:
  MAX. CHANGE LAYER,ROW,COL MAX. CHANGE LAYER,ROW,COL MAX. CHANGE LAYER,ROW,COL MAX. CHANGE LAYER,ROW,COL MAX. CHANGE LAYER,ROW,COL
 ------------------------------------------------------------------------------------------------------------------------------------
   0.1340     (  1,131,182)  0.4156E-01 (  1,129,185)  0.1778E-01 (  1,130,185)  0.4808E-02 (  1,129,185)  0.1435E-02 (  1,128,183)
   0.4288E-03 (  1,129,183)  0.1284E-03 (  1,130,184)  0.3541E-04 (  1,129,183)


     1 CALLS TO GCG PACKAGE FOR TRANSPORT TIME STEP   1 IN FLOW TIME STEP   9 STRESS PERIOD   2
     8 TOTAL ITERATIONS
  MAXIMUM CONCENTRATION CHANGES FOR EACH ITERATION:
  MAX. CHANGE LAYER,ROW,COL MAX. CHANGE LAYER,ROW,COL MAX. CHANGE LAYER,ROW,COL MAX. CHANGE LAYER,ROW,COL MAX. CHANGE LAYER,ROW,COL
 ------------------------------------------------------------------------------------------------------------------------------------
   0.1356     (  1, 77, 92)  0.4578E-01 (  1, 79, 91)  0.1302E-01 (  1, 79, 91)  0.3082E-02 (  1, 40, 99)  0.1295E-02 (  1, 79, 91)
   0.3837E-03 (  1, 41,114)  0.1317E-03 (  1, 40,114)  0.4816E-04 (  1, 40,113)


     1 CALLS TO GCG PACKAGE FOR TRANSPORT TIME STEP   1 IN FLOW TIME STEP   9 STRESS PERIOD   2
     8 TOTAL ITERATIONS
  MAXIMUM CONCENTRATION CHANGES FOR EACH ITERATION:
  MAX. CHANGE LAYER,ROW,COL MAX. CHANGE LAYER,ROW,COL MAX. CHANGE LAYER,ROW,COL MAX. CHANGE LAYER,ROW,COL MAX. CHANGE LAYER,ROW,COL
 ------------------------------------------------------------------------------------------------------------------------------------
   0.1274     (  1,131,182)  0.3881E-01 (  1,129,185)  0.1777E-01 (  1,130,185)  0.4916E-02 (  1,129,185)  0.1321E-02 (  1,128,183)
   0.4262E-03 (  1,126,179)  0.1196E-03 (  1,130,184)  0.2837E-04 (  1,129,183)



 >>>>>>>>>>>>>>>>>>>>>>>>>>>>>>>>>>>>>>>>>>>>>>>>>>>>>>>FOR COMPONENT NO. 01<<<<<<<<<<<<<<<<<<<<<<<<<<<<<<<<<<<<<<<<<<<<<<<<<<<<<<<


                                            -------------------------------------------
                                                      TRANSPORT STEP NO.    1
                                            -------------------------------------------

 TOTAL ELAPSED TIME SINCE BEGINNING OF SIMULATION =   910.0000       d
 .....................................................................

                     CUMMULATIVE MASS BUDGETS AT END OF TRANSPORT STEP    1, TIME STEP    9, STRESS PERIOD    2
                     ------------------------------------------------------------------------------------------

                                                             IN                           OUT
                                                      ----------------             ----------------
                               CONSTANT CONCENTRATION:    0.000000                    0.000000    
                                        CONSTANT HEAD:    0.000000                  -0.1642477E-11
                                             RECHARGE:   0.1086869E+08                0.000000    
                                   EVAPOTRANSPIRATION:    0.000000                    90.81706    
                                MASS STORAGE (SOLUTE):    9010.672                  -0.1087757E+08
                            ---------------------------------------------------------------------------
                                              [TOTAL]:   0.1087770E+08   mg         -0.1087748E+08   mg

                                                          NET (IN - OUT):    225.0000    
                                                   DISCREPANCY (PERCENT):   0.2068473E-02



 >>>>>>>>>>>>>>>>>>>>>>>>>>>>>>>>>>>>>>>>>>>>>>>>>>>>>>>FOR COMPONENT NO. 02<<<<<<<<<<<<<<<<<<<<<<<<<<<<<<<<<<<<<<<<<<<<<<<<<<<<<<<


                                            -------------------------------------------
                                                      TRANSPORT STEP NO.    1
                                            -------------------------------------------

 TOTAL ELAPSED TIME SINCE BEGINNING OF SIMULATION =   910.0000       d
 .....................................................................

                     CUMMULATIVE MASS BUDGETS AT END OF TRANSPORT STEP    1, TIME STEP    9, STRESS PERIOD    2
                     ------------------------------------------------------------------------------------------

                                                             IN                           OUT
                                                      ----------------             ----------------
                               CONSTANT CONCENTRATION:    0.000000                    0.000000    
                                        CONSTANT HEAD:    0.000000                  -0.1642535E-12
                                             RECHARGE:    1059269.                    0.000000    
                                   EVAPOTRANSPIRATION:    0.000000                    8.756558    
                                MASS STORAGE (SOLUTE):    881.1887                   -1060148.    
                            ---------------------------------------------------------------------------
                                              [TOTAL]:    1060151.       mg          -1060139.       mg

                                                          NET (IN - OUT):    11.87500    
                                                   DISCREPANCY (PERCENT):   0.1120130E-02



 >>>>>>>>>>>>>>>>>>>>>>>>>>>>>>>>>>>>>>>>>>>>>>>>>>>>>>>FOR COMPONENT NO. 03<<<<<<<<<<<<<<<<<<<<<<<<<<<<<<<<<<<<<<<<<<<<<<<<<<<<<<<


                                            -------------------------------------------
                                                      TRANSPORT STEP NO.    1
                                            -------------------------------------------

 TOTAL ELAPSED TIME SINCE BEGINNING OF SIMULATION =   910.0000       d
 .....................................................................

                     CUMMULATIVE MASS BUDGETS AT END OF TRANSPORT STEP    1, TIME STEP    9, STRESS PERIOD    2
                     ------------------------------------------------------------------------------------------

                                                             IN                           OUT
                                                      ----------------             ----------------
                               CONSTANT CONCENTRATION:    0.000000                    0.000000    
                                        CONSTANT HEAD:    0.000000                  -0.8244976E-14
                                             RECHARGE:    38784.79                    0.000000    
                                   EVAPOTRANSPIRATION:    0.000000                   0.2278757    
                                MASS STORAGE (SOLUTE):    30.79735                   -38815.30    
                            ---------------------------------------------------------------------------
                                              [TOTAL]:    38815.59       mg          -38815.07       mg

                                                          NET (IN - OUT):   0.5117188    
                                                   DISCREPANCY (PERCENT):   0.1318342E-02



 >>>>>>>>>>>>>>>>>>>>>>>>>>>>>>>>>>>>>>>>>>>>>>>>>>>>>>>FOR COMPONENT NO. 04<<<<<<<<<<<<<<<<<<<<<<<<<<<<<<<<<<<<<<<<<<<<<<<<<<<<<<<


                                            -------------------------------------------
                                                      TRANSPORT STEP NO.    1
                                            -------------------------------------------

 TOTAL ELAPSED TIME SINCE BEGINNING OF SIMULATION =   910.0000       d
 .....................................................................

                     CUMMULATIVE MASS BUDGETS AT END OF TRANSPORT STEP    1, TIME STEP    9, STRESS PERIOD    2
                     ------------------------------------------------------------------------------------------

                                                             IN                           OUT
                                                      ----------------             ----------------
                               CONSTANT CONCENTRATION:    0.000000                    0.000000    
                                        CONSTANT HEAD:    0.000000                    0.000000    
                                             RECHARGE:    7085.385                    0.000000    
                                   EVAPOTRANSPIRATION:    0.000000                   0.1111462    
                                MASS STORAGE (SOLUTE):    7.075391                   -7092.623    
                            ---------------------------------------------------------------------------
                                              [TOTAL]:    7092.460       mg          -7092.512       mg

                                                          NET (IN - OUT):  -0.5126953E-01
                                                   DISCREPANCY (PERCENT):  -0.7228710E-03


                                          ================================================
                                                         TIME STEP NO.  010
                                          ================================================

 FROM TIME =   910.00     TO    1000.0    



     1 CALLS TO GCG PACKAGE FOR TRANSPORT TIME STEP   1 IN FLOW TIME STEP  10 STRESS PERIOD   2
     8 TOTAL ITERATIONS
  MAXIMUM CONCENTRATION CHANGES FOR EACH ITERATION:
  MAX. CHANGE LAYER,ROW,COL MAX. CHANGE LAYER,ROW,COL MAX. CHANGE LAYER,ROW,COL MAX. CHANGE LAYER,ROW,COL MAX. CHANGE LAYER,ROW,COL
 ------------------------------------------------------------------------------------------------------------------------------------
   0.1256     (  1,131,182)  0.3956E-01 (  1,129,185)  0.1658E-01 (  1,130,185)  0.4655E-02 (  1,129,185)  0.1361E-02 (  1,128,183)
   0.4017E-03 (  1,129,183)  0.1283E-03 (  1,130,184)  0.3397E-04 (  1,129,183)


     1 CALLS TO GCG PACKAGE FOR TRANSPORT TIME STEP   1 IN FLOW TIME STEP  10 STRESS PERIOD   2
     8 TOTAL ITERATIONS
  MAXIMUM CONCENTRATION CHANGES FOR EACH ITERATION:
  MAX. CHANGE LAYER,ROW,COL MAX. CHANGE LAYER,ROW,COL MAX. CHANGE LAYER,ROW,COL MAX. CHANGE LAYER,ROW,COL MAX. CHANGE LAYER,ROW,COL
 ------------------------------------------------------------------------------------------------------------------------------------
   0.1260     (  1,131,182)  0.3976E-01 (  1,129,185)  0.1665E-01 (  1,130,185)  0.4639E-02 (  1,129,185)  0.1357E-02 (  1,128,183)
   0.4042E-03 (  1,129,183)  0.1251E-03 (  1,130,184)  0.3433E-04 (  1,129,183)


     1 CALLS TO GCG PACKAGE FOR TRANSPORT TIME STEP   1 IN FLOW TIME STEP  10 STRESS PERIOD   2
     8 TOTAL ITERATIONS
  MAXIMUM CONCENTRATION CHANGES FOR EACH ITERATION:
  MAX. CHANGE LAYER,ROW,COL MAX. CHANGE LAYER,ROW,COL MAX. CHANGE LAYER,ROW,COL MAX. CHANGE LAYER,ROW,COL MAX. CHANGE LAYER,ROW,COL
 ------------------------------------------------------------------------------------------------------------------------------------
   0.1220     (  1, 77, 92)  0.4086E-01 (  1, 79, 91)  0.1144E-01 (  1, 79, 91)  0.2808E-02 (  1, 40, 99)  0.1159E-02 (  1, 79, 91)
   0.3527E-03 (  1, 41,114)  0.1197E-03 (  1, 40,114)  0.4447E-04 (  1, 40,113)


     1 CALLS TO GCG PACKAGE FOR TRANSPORT TIME STEP   1 IN FLOW TIME STEP  10 STRESS PERIOD   2
     8 TOTAL ITERATIONS
  MAXIMUM CONCENTRATION CHANGES FOR EACH ITERATION:
  MAX. CHANGE LAYER,ROW,COL MAX. CHANGE LAYER,ROW,COL MAX. CHANGE LAYER,ROW,COL MAX. CHANGE LAYER,ROW,COL MAX. CHANGE LAYER,ROW,COL
 ------------------------------------------------------------------------------------------------------------------------------------
   0.1194     (  1,131,182)  0.3685E-01 (  1,129,185)  0.1664E-01 (  1,130,185)  0.4800E-02 (  1,129,185)  0.1244E-02 (  1,128,183)
   0.4087E-03 (  1,126,179)  0.1154E-03 (  1,130,184)  0.2766E-04 (  1,129,183)



 >>>>>>>>>>>>>>>>>>>>>>>>>>>>>>>>>>>>>>>>>>>>>>>>>>>>>>>FOR COMPONENT NO. 01<<<<<<<<<<<<<<<<<<<<<<<<<<<<<<<<<<<<<<<<<<<<<<<<<<<<<<<


                                            -------------------------------------------
                                                      TRANSPORT STEP NO.    1
                                            -------------------------------------------

 TOTAL ELAPSED TIME SINCE BEGINNING OF SIMULATION =   1000.000       d
 .....................................................................

                     CUMMULATIVE MASS BUDGETS AT END OF TRANSPORT STEP    1, TIME STEP   10, STRESS PERIOD    2
                     ------------------------------------------------------------------------------------------

                                                             IN                           OUT
                                                      ----------------             ----------------
                               CONSTANT CONCENTRATION:    0.000000                    0.000000    
                                        CONSTANT HEAD:    0.000000                  -0.5165142E-11
                                             RECHARGE:   0.1194362E+08                0.000000    
                                   EVAPOTRANSPIRATION:    0.000000                    115.1769    
                                MASS STORAGE (SOLUTE):    10234.98                  -0.1195374E+08
                            ---------------------------------------------------------------------------
                                              [TOTAL]:   0.1195385E+08   mg         -0.1195362E+08   mg

                                                          NET (IN - OUT):    230.0000    
                                                   DISCREPANCY (PERCENT):   0.1924084E-02



 >>>>>>>>>>>>>>>>>>>>>>>>>>>>>>>>>>>>>>>>>>>>>>>>>>>>>>>FOR COMPONENT NO. 02<<<<<<<<<<<<<<<<<<<<<<<<<<<<<<<<<<<<<<<<<<<<<<<<<<<<<<<


                                            -------------------------------------------
                                                      TRANSPORT STEP NO.    1
                                            -------------------------------------------

 TOTAL ELAPSED TIME SINCE BEGINNING OF SIMULATION =   1000.000       d
 .....................................................................

                     CUMMULATIVE MASS BUDGETS AT END OF TRANSPORT STEP    1, TIME STEP   10, STRESS PERIOD    2
                     ------------------------------------------------------------------------------------------

                                                             IN                           OUT
                                                      ----------------             ----------------
                               CONSTANT CONCENTRATION:    0.000000                    0.000000    
                                        CONSTANT HEAD:    0.000000                  -0.5165203E-12
                                             RECHARGE:    1164032.                    0.000000    
                                   EVAPOTRANSPIRATION:    0.000000                    11.08919    
                                MASS STORAGE (SOLUTE):    1000.359                   -1165032.    
                            ---------------------------------------------------------------------------
                                              [TOTAL]:    1165033.       mg          -1165021.       mg

                                                          NET (IN - OUT):    12.12500    
                                                   DISCREPANCY (PERCENT):   0.1040749E-02



 >>>>>>>>>>>>>>>>>>>>>>>>>>>>>>>>>>>>>>>>>>>>>>>>>>>>>>>FOR COMPONENT NO. 03<<<<<<<<<<<<<<<<<<<<<<<<<<<<<<<<<<<<<<<<<<<<<<<<<<<<<<<


                                            -------------------------------------------
                                                      TRANSPORT STEP NO.    1
                                            -------------------------------------------

 TOTAL ELAPSED TIME SINCE BEGINNING OF SIMULATION =   1000.000       d
 .....................................................................

                     CUMMULATIVE MASS BUDGETS AT END OF TRANSPORT STEP    1, TIME STEP   10, STRESS PERIOD    2
                     ------------------------------------------------------------------------------------------

                                                             IN                           OUT
                                                      ----------------             ----------------
                               CONSTANT CONCENTRATION:    0.000000                    0.000000    
                                        CONSTANT HEAD:    0.000000                  -0.2584649E-13
                                             RECHARGE:    42620.65                    0.000000    
                                   EVAPOTRANSPIRATION:    0.000000                   0.2820927    
                                MASS STORAGE (SOLUTE):    35.16206                   -42655.54    
                            ---------------------------------------------------------------------------
                                              [TOTAL]:    42655.81       mg          -42655.26       mg

                                                          NET (IN - OUT):   0.5507812    
                                                   DISCREPANCY (PERCENT):   0.1291231E-02



 >>>>>>>>>>>>>>>>>>>>>>>>>>>>>>>>>>>>>>>>>>>>>>>>>>>>>>>FOR COMPONENT NO. 04<<<<<<<<<<<<<<<<<<<<<<<<<<<<<<<<<<<<<<<<<<<<<<<<<<<<<<<


                                            -------------------------------------------
                                                      TRANSPORT STEP NO.    1
                                            -------------------------------------------

 TOTAL ELAPSED TIME SINCE BEGINNING OF SIMULATION =   1000.000       d
 .....................................................................

                     CUMMULATIVE MASS BUDGETS AT END OF TRANSPORT STEP    1, TIME STEP   10, STRESS PERIOD    2
                     ------------------------------------------------------------------------------------------

                                                             IN                           OUT
                                                      ----------------             ----------------
                               CONSTANT CONCENTRATION:    0.000000                    0.000000    
                                        CONSTANT HEAD:    0.000000                    0.000000    
                                             RECHARGE:    7786.138                    0.000000    
                                   EVAPOTRANSPIRATION:    0.000000                   0.1436922    
                                MASS STORAGE (SOLUTE):    7.860149                   -7794.197    
                            ---------------------------------------------------------------------------
                                              [TOTAL]:    7793.998       mg          -7794.054       mg

                                                          NET (IN - OUT):  -0.5566406E-01
                                                   DISCREPANCY (PERCENT):  -0.7141888E-03


                                   ++++++++++++++++++++++++++++++++++++++++++++++++++++++++++++++
                                                       STRESS PERIOD NO.  003
                                   ++++++++++++++++++++++++++++++++++++++++++++++++++++++++++++++


 LENGTH OF CURRENT STRESS PERIOD =   9000.000    
 NUMBER OF TIME STEPS FOR CURRENT STRESS PERIOD =   10
 TIME STEP MULTIPLIER USED IN FLOW SOLUTION =   1.000000    

 ***Type of Transport Simulation is TRANSIENT

 USER-SPECIFIED TRANSPORT STEPSIZE =   0.000000       d
 MAXIMUM NUMBER OF TRANSPORT STEPS ALLOWED  IN ONE FLOW TIME STEP =      1000
 MULTIPLIER FOR SUCCESSIVE TRANSPORT STEPS  [USED IN IMPLICIT SCHEMES] =     1.000
 MAXIMUM TRANSPORT STEP SIZE  [USED IN IMPLICIT SCHEMES] =   0.000000       d

 CONCENTRATION OF RECHARGE FLUXES REUSED FROM LAST STRESS PERIOD

 CONCENTRATION OF E. T. FLUXES REUSED FROM LAST STRESS PERIOD

 NO. OF POINT SINKS/SOURCES OF SPECIFIED CONCONCENTRATIONS =    0 IN STRESS PERIOD  3


                                          ================================================
                                                         TIME STEP NO.  001
                                          ================================================

 FROM TIME =   1000.0     TO    1900.0    



     1 CALLS TO GCG PACKAGE FOR TRANSPORT TIME STEP   1 IN FLOW TIME STEP   1 STRESS PERIOD   3
    17 TOTAL ITERATIONS


     1 CALLS TO GCG PACKAGE FOR TRANSPORT TIME STEP   1 IN FLOW TIME STEP   1 STRESS PERIOD   3
    17 TOTAL ITERATIONS


     1 CALLS TO GCG PACKAGE FOR TRANSPORT TIME STEP   1 IN FLOW TIME STEP   1 STRESS PERIOD   3
    19 TOTAL ITERATIONS


     1 CALLS TO GCG PACKAGE FOR TRANSPORT TIME STEP   1 IN FLOW TIME STEP   1 STRESS PERIOD   3
    16 TOTAL ITERATIONS



 >>>>>>>>>>>>>>>>>>>>>>>>>>>>>>>>>>>>>>>>>>>>>>>>>>>>>>>FOR COMPONENT NO. 01<<<<<<<<<<<<<<<<<<<<<<<<<<<<<<<<<<<<<<<<<<<<<<<<<<<<<<<


                                            -------------------------------------------
                                                      TRANSPORT STEP NO.    1
                                            -------------------------------------------

 TOTAL ELAPSED TIME SINCE BEGINNING OF SIMULATION =   1561.084       d
 .....................................................................

                     CUMMULATIVE MASS BUDGETS AT END OF TRANSPORT STEP    1, TIME STEP    1, STRESS PERIOD    3
                     ------------------------------------------------------------------------------------------

                                                             IN                           OUT
                                                      ----------------             ----------------
                               CONSTANT CONCENTRATION:    0.000000                    0.000000    
                                        CONSTANT HEAD:    0.000000                  -0.1738680E-06
                                             RECHARGE:   0.1864497E+08                0.000000    
                                   EVAPOTRANSPIRATION:    0.000000                    123.8417    
                                MASS STORAGE (SOLUTE):    10882.90                  -0.1865418E+08
                            ---------------------------------------------------------------------------
                                              [TOTAL]:   0.1865585E+08   mg         -0.1865406E+08   mg

                                                          NET (IN - OUT):    1798.000    
                                                   DISCREPANCY (PERCENT):   0.9638189E-02



 >>>>>>>>>>>>>>>>>>>>>>>>>>>>>>>>>>>>>>>>>>>>>>>>>>>>>>>FOR COMPONENT NO. 02<<<<<<<<<<<<<<<<<<<<<<<<<<<<<<<<<<<<<<<<<<<<<<<<<<<<<<<


                                            -------------------------------------------
                                                      TRANSPORT STEP NO.    1
                                            -------------------------------------------

 TOTAL ELAPSED TIME SINCE BEGINNING OF SIMULATION =   1561.084       d
 .....................................................................

                     CUMMULATIVE MASS BUDGETS AT END OF TRANSPORT STEP    1, TIME STEP    1, STRESS PERIOD    3
                     ------------------------------------------------------------------------------------------

                                                             IN                           OUT
                                                      ----------------             ----------------
                               CONSTANT CONCENTRATION:    0.000000                    0.000000    
                                        CONSTANT HEAD:    0.000000                  -0.1748191E-07
                                             RECHARGE:    1817150.                    0.000000    
                                   EVAPOTRANSPIRATION:    0.000000                    11.95611    
                                MASS STORAGE (SOLUTE):    1065.147                   -1818062.    
                            ---------------------------------------------------------------------------
                                              [TOTAL]:    1818215.       mg          -1818050.       mg

                                                          NET (IN - OUT):    165.3750    
                                                   DISCREPANCY (PERCENT):   0.9095871E-02



 >>>>>>>>>>>>>>>>>>>>>>>>>>>>>>>>>>>>>>>>>>>>>>>>>>>>>>>FOR COMPONENT NO. 03<<<<<<<<<<<<<<<<<<<<<<<<<<<<<<<<<<<<<<<<<<<<<<<<<<<<<<<


                                            -------------------------------------------
                                                      TRANSPORT STEP NO.    1
                                            -------------------------------------------

 TOTAL ELAPSED TIME SINCE BEGINNING OF SIMULATION =   1561.084       d
 .....................................................................

                     CUMMULATIVE MASS BUDGETS AT END OF TRANSPORT STEP    1, TIME STEP    1, STRESS PERIOD    3
                     ------------------------------------------------------------------------------------------

                                                             IN                           OUT
                                                      ----------------             ----------------
                               CONSTANT CONCENTRATION:    0.000000                    0.000000    
                                        CONSTANT HEAD:    0.000000                  -0.1313746E-08
                                             RECHARGE:    66534.30                    0.000000    
                                   EVAPOTRANSPIRATION:    0.000000                   0.3249879    
                                MASS STORAGE (SOLUTE):    38.38466                   -66568.84    
                            ---------------------------------------------------------------------------
                                              [TOTAL]:    66572.68       mg          -66568.52       mg

                                                          NET (IN - OUT):    4.164062    
                                                   DISCREPANCY (PERCENT):   0.6255108E-02



 >>>>>>>>>>>>>>>>>>>>>>>>>>>>>>>>>>>>>>>>>>>>>>>>>>>>>>>FOR COMPONENT NO. 04<<<<<<<<<<<<<<<<<<<<<<<<<<<<<<<<<<<<<<<<<<<<<<<<<<<<<<<


                                            -------------------------------------------
                                                      TRANSPORT STEP NO.    1
                                            -------------------------------------------

 TOTAL ELAPSED TIME SINCE BEGINNING OF SIMULATION =   1561.084       d
 .....................................................................

                     CUMMULATIVE MASS BUDGETS AT END OF TRANSPORT STEP    1, TIME STEP    1, STRESS PERIOD    3
                     ------------------------------------------------------------------------------------------

                                                             IN                           OUT
                                                      ----------------             ----------------
                               CONSTANT CONCENTRATION:    0.000000                    0.000000    
                                        CONSTANT HEAD:    0.000000                    0.000000    
                                             RECHARGE:    12154.81                    0.000000    
                                   EVAPOTRANSPIRATION:    0.000000                   0.1437959    
                                MASS STORAGE (SOLUTE):    7.862192                   -12162.59    
                            ---------------------------------------------------------------------------
                                              [TOTAL]:    12162.68       mg          -12162.44       mg

                                                          NET (IN - OUT):   0.2333984    
                                                   DISCREPANCY (PERCENT):   0.1918991E-02
     1 CALLS TO GCG PACKAGE FOR TRANSPORT TIME STEP   2 IN FLOW TIME STEP   1 STRESS PERIOD   3
    14 TOTAL ITERATIONS
  MAXIMUM CONCENTRATION CHANGES FOR EACH ITERATION:
  MAX. CHANGE LAYER,ROW,COL MAX. CHANGE LAYER,ROW,COL MAX. CHANGE LAYER,ROW,COL MAX. CHANGE LAYER,ROW,COL MAX. CHANGE LAYER,ROW,COL
 ------------------------------------------------------------------------------------------------------------------------------------
   0.2640     (  1,133,186)  0.2074     (  1,131,186)  0.9762E-01 (  1,129,180)  0.5411E-01 (  1,129,183)  0.2964E-01 (  1,128,183)
   0.1351E-01 (  1,128,185)  0.7140E-02 (  1,131,184)  0.2871E-02 (  1,126,185)  0.1663E-02 (  1,129,185)  0.8392E-03 (  1,128,185)
   0.3321E-03 (  1,128,184)  0.1817E-03 (  1,124,184)  0.1022E-03 (  1,130,184)  0.4289E-04 (  1,123,184)
     1 CALLS TO GCG PACKAGE FOR TRANSPORT TIME STEP   2 IN FLOW TIME STEP   1 STRESS PERIOD   3
    14 TOTAL ITERATIONS
  MAXIMUM CONCENTRATION CHANGES FOR EACH ITERATION:
  MAX. CHANGE LAYER,ROW,COL MAX. CHANGE LAYER,ROW,COL MAX. CHANGE LAYER,ROW,COL MAX. CHANGE LAYER,ROW,COL MAX. CHANGE LAYER,ROW,COL
 ------------------------------------------------------------------------------------------------------------------------------------
   0.2659     (  1,133,186)  0.2084     (  1,131,186)  0.9745E-01 (  1,129,180)  0.5405E-01 (  1,129,183)  0.2934E-01 (  1,128,183)
   0.1349E-01 (  1,127,183)  0.7165E-02 (  1,131,184)  0.2853E-02 (  1,126,185)  0.1687E-02 (  1,129,185)  0.8461E-03 (  1,128,185)
   0.3262E-03 (  1,128,184)  0.1842E-03 (  1,124,184)  0.1013E-03 (  1,130,184)  0.4289E-04 (  1,123,184)
     1 CALLS TO GCG PACKAGE FOR TRANSPORT TIME STEP   2 IN FLOW TIME STEP   1 STRESS PERIOD   3
    14 TOTAL ITERATIONS
  MAXIMUM CONCENTRATION CHANGES FOR EACH ITERATION:
  MAX. CHANGE LAYER,ROW,COL MAX. CHANGE LAYER,ROW,COL MAX. CHANGE LAYER,ROW,COL MAX. CHANGE LAYER,ROW,COL MAX. CHANGE LAYER,ROW,COL
 ------------------------------------------------------------------------------------------------------------------------------------
   0.3039     (  1, 79, 91)  0.1573     (  1, 79, 91)  0.7001E-01 (  1, 78, 91)  0.4437E-01 (  1, 79, 91)  0.2370E-01 (  1, 78, 91)
   0.9994E-02 (  1, 39, 89)  0.5273E-02 (  1, 79, 92)  0.3141E-02 (  1, 78, 92)  0.1274E-02 (  1, 40,114)  0.6665E-03 (  1, 78, 92)
   0.3829E-03 (  1, 41,113)  0.2097E-03 (  1, 40,116)  0.1338E-03 (  1, 40,114)  0.7313E-04 (  1, 39,114)
     1 CALLS TO GCG PACKAGE FOR TRANSPORT TIME STEP   2 IN FLOW TIME STEP   1 STRESS PERIOD   3
    13 TOTAL ITERATIONS
  MAXIMUM CONCENTRATION CHANGES FOR EACH ITERATION:
  MAX. CHANGE LAYER,ROW,COL MAX. CHANGE LAYER,ROW,COL MAX. CHANGE LAYER,ROW,COL MAX. CHANGE LAYER,ROW,COL MAX. CHANGE LAYER,ROW,COL
 ------------------------------------------------------------------------------------------------------------------------------------
   0.2457     (  1,133,186)  0.1946     (  1,129,181)  0.9655E-01 (  1,129,180)  0.5738E-01 (  1,129,183)  0.3328E-01 (  1,128,183)
   0.1344E-01 (  1,127,183)  0.6230E-02 (  1,127,185)  0.2992E-02 (  1,126,185)  0.1567E-02 (  1,128,179)  0.8340E-03 (  1,127,179)
   0.3037E-03 (  1,128,180)  0.1601E-03 (  1,130,185)  0.9143E-04 (  1,130,184)



 >>>>>>>>>>>>>>>>>>>>>>>>>>>>>>>>>>>>>>>>>>>>>>>>>>>>>>>FOR COMPONENT NO. 01<<<<<<<<<<<<<<<<<<<<<<<<<<<<<<<<<<<<<<<<<<<<<<<<<<<<<<<


                                            -------------------------------------------
                                                      TRANSPORT STEP NO.    2
                                            -------------------------------------------

 TOTAL ELAPSED TIME SINCE BEGINNING OF SIMULATION =   1900.000       d
 .....................................................................

                     CUMMULATIVE MASS BUDGETS AT END OF TRANSPORT STEP    2, TIME STEP    1, STRESS PERIOD    3
                     ------------------------------------------------------------------------------------------

                                                             IN                           OUT
                                                      ----------------             ----------------
                               CONSTANT CONCENTRATION:    0.000000                    0.000000    
                                        CONSTANT HEAD:    0.000000                  -0.7579639E-06
                                             RECHARGE:   0.2269285E+08                0.000000    
                                   EVAPOTRANSPIRATION:    0.000000                    130.7820    
                                MASS STORAGE (SOLUTE):    12098.66                  -0.2270308E+08
                            ---------------------------------------------------------------------------
                                              [TOTAL]:   0.2270495E+08   mg         -0.2270295E+08   mg

                                                          NET (IN - OUT):    2002.000    
                                                   DISCREPANCY (PERCENT):   0.8817850E-02



 >>>>>>>>>>>>>>>>>>>>>>>>>>>>>>>>>>>>>>>>>>>>>>>>>>>>>>>FOR COMPONENT NO. 02<<<<<<<<<<<<<<<<<<<<<<<<<<<<<<<<<<<<<<<<<<<<<<<<<<<<<<<


                                            -------------------------------------------
                                                      TRANSPORT STEP NO.    2
                                            -------------------------------------------

 TOTAL ELAPSED TIME SINCE BEGINNING OF SIMULATION =   1900.000       d
 .....................................................................

                     CUMMULATIVE MASS BUDGETS AT END OF TRANSPORT STEP    2, TIME STEP    1, STRESS PERIOD    3
                     ------------------------------------------------------------------------------------------

                                                             IN                           OUT
                                                      ----------------             ----------------
                               CONSTANT CONCENTRATION:    0.000000                    0.000000    
                                        CONSTANT HEAD:    0.000000                  -0.7605006E-07
                                             RECHARGE:    2211659.                    0.000000    
                                   EVAPOTRANSPIRATION:    0.000000                    12.65121    
                                MASS STORAGE (SOLUTE):    1185.682                   -2212671.    
                            ---------------------------------------------------------------------------
                                              [TOTAL]:    2212845.       mg          -2212658.       mg

                                                          NET (IN - OUT):    186.5000    
                                                   DISCREPANCY (PERCENT):   0.8428421E-02



 >>>>>>>>>>>>>>>>>>>>>>>>>>>>>>>>>>>>>>>>>>>>>>>>>>>>>>>FOR COMPONENT NO. 03<<<<<<<<<<<<<<<<<<<<<<<<<<<<<<<<<<<<<<<<<<<<<<<<<<<<<<<


                                            -------------------------------------------
                                                      TRANSPORT STEP NO.    2
                                            -------------------------------------------

 TOTAL ELAPSED TIME SINCE BEGINNING OF SIMULATION =   1900.000       d
 .....................................................................

                     CUMMULATIVE MASS BUDGETS AT END OF TRANSPORT STEP    2, TIME STEP    1, STRESS PERIOD    3
                     ------------------------------------------------------------------------------------------

                                                             IN                           OUT
                                                      ----------------             ----------------
                               CONSTANT CONCENTRATION:    0.000000                    0.000000    
                                        CONSTANT HEAD:    0.000000                  -0.4687435E-08
                                             RECHARGE:    80979.07                    0.000000    
                                   EVAPOTRANSPIRATION:    0.000000                   0.3587349    
                                MASS STORAGE (SOLUTE):    43.61208                   -81018.64    
                            ---------------------------------------------------------------------------
                                              [TOTAL]:    81022.68       mg          -81018.28       mg

                                                          NET (IN - OUT):    4.398438    
                                                   DISCREPANCY (PERCENT):   0.5428797E-02



 >>>>>>>>>>>>>>>>>>>>>>>>>>>>>>>>>>>>>>>>>>>>>>>>>>>>>>>FOR COMPONENT NO. 04<<<<<<<<<<<<<<<<<<<<<<<<<<<<<<<<<<<<<<<<<<<<<<<<<<<<<<<


                                            -------------------------------------------
                                                      TRANSPORT STEP NO.    2
                                            -------------------------------------------

 TOTAL ELAPSED TIME SINCE BEGINNING OF SIMULATION =   1900.000       d
 .....................................................................

                     CUMMULATIVE MASS BUDGETS AT END OF TRANSPORT STEP    2, TIME STEP    1, STRESS PERIOD    3
                     ------------------------------------------------------------------------------------------

                                                             IN                           OUT
                                                      ----------------             ----------------
                               CONSTANT CONCENTRATION:    0.000000                    0.000000    
                                        CONSTANT HEAD:    0.000000                    0.000000    
                                             RECHARGE:    14793.66                    0.000000    
                                   EVAPOTRANSPIRATION:    0.000000                   0.1448157    
                                MASS STORAGE (SOLUTE):    8.316209                   -14802.09    
                            ---------------------------------------------------------------------------
                                              [TOTAL]:    14801.98       mg          -14801.95       mg

                                                          NET (IN - OUT):   0.2929688E-01
                                                   DISCREPANCY (PERCENT):   0.1979256E-03


                                          ================================================
                                                         TIME STEP NO.  002
                                          ================================================

 FROM TIME =   1900.0     TO    2800.0    



     1 CALLS TO GCG PACKAGE FOR TRANSPORT TIME STEP   1 IN FLOW TIME STEP   2 STRESS PERIOD   3
    17 TOTAL ITERATIONS


     1 CALLS TO GCG PACKAGE FOR TRANSPORT TIME STEP   1 IN FLOW TIME STEP   2 STRESS PERIOD   3
    17 TOTAL ITERATIONS


     1 CALLS TO GCG PACKAGE FOR TRANSPORT TIME STEP   1 IN FLOW TIME STEP   2 STRESS PERIOD   3
    17 TOTAL ITERATIONS


     1 CALLS TO GCG PACKAGE FOR TRANSPORT TIME STEP   1 IN FLOW TIME STEP   2 STRESS PERIOD   3
    16 TOTAL ITERATIONS



 >>>>>>>>>>>>>>>>>>>>>>>>>>>>>>>>>>>>>>>>>>>>>>>>>>>>>>>FOR COMPONENT NO. 01<<<<<<<<<<<<<<<<<<<<<<<<<<<<<<<<<<<<<<<<<<<<<<<<<<<<<<<


                                            -------------------------------------------
                                                      TRANSPORT STEP NO.    1
                                            -------------------------------------------

 TOTAL ELAPSED TIME SINCE BEGINNING OF SIMULATION =   2461.084       d
 .....................................................................

                     CUMMULATIVE MASS BUDGETS AT END OF TRANSPORT STEP    1, TIME STEP    2, STRESS PERIOD    3
                     ------------------------------------------------------------------------------------------

                                                             IN                           OUT
                                                      ----------------             ----------------
                               CONSTANT CONCENTRATION:    0.000000                    0.000000    
                                        CONSTANT HEAD:    0.000000                  -0.1423766E-04
                                             RECHARGE:   0.2939421E+08                0.000000    
                                   EVAPOTRANSPIRATION:    0.000000                    137.1395    
                                MASS STORAGE (SOLUTE):    12369.39                  -0.2940394E+08
                            ---------------------------------------------------------------------------
                                              [TOTAL]:   0.2940658E+08   mg         -0.2940380E+08   mg

                                                          NET (IN - OUT):    2774.000    
                                                   DISCREPANCY (PERCENT):   0.9433709E-02



 >>>>>>>>>>>>>>>>>>>>>>>>>>>>>>>>>>>>>>>>>>>>>>>>>>>>>>>FOR COMPONENT NO. 02<<<<<<<<<<<<<<<<<<<<<<<<<<<<<<<<<<<<<<<<<<<<<<<<<<<<<<<


                                            -------------------------------------------
                                                      TRANSPORT STEP NO.    1
                                            -------------------------------------------

 TOTAL ELAPSED TIME SINCE BEGINNING OF SIMULATION =   2461.084       d
 .....................................................................

                     CUMMULATIVE MASS BUDGETS AT END OF TRANSPORT STEP    1, TIME STEP    2, STRESS PERIOD    3
                     ------------------------------------------------------------------------------------------

                                                             IN                           OUT
                                                      ----------------             ----------------
                               CONSTANT CONCENTRATION:    0.000000                    0.000000    
                                        CONSTANT HEAD:    0.000000                  -0.1425201E-05
                                             RECHARGE:    2864777.                    0.000000    
                                   EVAPOTRANSPIRATION:    0.000000                    13.30345    
                                MASS STORAGE (SOLUTE):    1212.858                   -2865739.    
                            ---------------------------------------------------------------------------
                                              [TOTAL]:    2865990.       mg          -2865726.       mg

                                                          NET (IN - OUT):    264.0000    
                                                   DISCREPANCY (PERCENT):   0.9211902E-02



 >>>>>>>>>>>>>>>>>>>>>>>>>>>>>>>>>>>>>>>>>>>>>>>>>>>>>>>FOR COMPONENT NO. 03<<<<<<<<<<<<<<<<<<<<<<<<<<<<<<<<<<<<<<<<<<<<<<<<<<<<<<<


                                            -------------------------------------------
                                                      TRANSPORT STEP NO.    1
                                            -------------------------------------------

 TOTAL ELAPSED TIME SINCE BEGINNING OF SIMULATION =   2461.084       d
 .....................................................................

                     CUMMULATIVE MASS BUDGETS AT END OF TRANSPORT STEP    1, TIME STEP    2, STRESS PERIOD    3
                     ------------------------------------------------------------------------------------------

                                                             IN                           OUT
                                                      ----------------             ----------------
                               CONSTANT CONCENTRATION:    0.000000                    0.000000    
                                        CONSTANT HEAD:    0.000000                  -0.7343320E-07
                                             RECHARGE:    104892.7                    0.000000    
                                   EVAPOTRANSPIRATION:    0.000000                   0.3932940    
                                MASS STORAGE (SOLUTE):    44.99974                   -104932.9    
                            ---------------------------------------------------------------------------
                                              [TOTAL]:    104937.7       mg          -104932.5       mg

                                                          NET (IN - OUT):    5.242188    
                                                   DISCREPANCY (PERCENT):   0.4995648E-02



 >>>>>>>>>>>>>>>>>>>>>>>>>>>>>>>>>>>>>>>>>>>>>>>>>>>>>>>FOR COMPONENT NO. 04<<<<<<<<<<<<<<<<<<<<<<<<<<<<<<<<<<<<<<<<<<<<<<<<<<<<<<<


                                            -------------------------------------------
                                                      TRANSPORT STEP NO.    1
                                            -------------------------------------------

 TOTAL ELAPSED TIME SINCE BEGINNING OF SIMULATION =   2461.084       d
 .....................................................................

                     CUMMULATIVE MASS BUDGETS AT END OF TRANSPORT STEP    1, TIME STEP    2, STRESS PERIOD    3
                     ------------------------------------------------------------------------------------------

                                                             IN                           OUT
                                                      ----------------             ----------------
                               CONSTANT CONCENTRATION:    0.000000                    0.000000    
                                        CONSTANT HEAD:    0.000000                  -0.1703327E-28
                                             RECHARGE:    19162.34                    0.000000    
                                   EVAPOTRANSPIRATION:    0.000000                   0.1448913    
                                MASS STORAGE (SOLUTE):    8.317631                   -19170.98    
                            ---------------------------------------------------------------------------
                                              [TOTAL]:    19170.65       mg          -19170.84       mg

                                                          NET (IN - OUT):  -0.1816406    
                                                   DISCREPANCY (PERCENT):  -0.9474885E-03
     1 CALLS TO GCG PACKAGE FOR TRANSPORT TIME STEP   2 IN FLOW TIME STEP   2 STRESS PERIOD   3
    13 TOTAL ITERATIONS
  MAXIMUM CONCENTRATION CHANGES FOR EACH ITERATION:
  MAX. CHANGE LAYER,ROW,COL MAX. CHANGE LAYER,ROW,COL MAX. CHANGE LAYER,ROW,COL MAX. CHANGE LAYER,ROW,COL MAX. CHANGE LAYER,ROW,COL
 ------------------------------------------------------------------------------------------------------------------------------------
   0.2164     (  1,133,186)  0.1884     (  1,128,179)  0.8925E-01 (  1,129,180)  0.4479E-01 (  1,129,183)  0.2670E-01 (  1,128,183)
   0.1165E-01 (  1,128,185)  0.6202E-02 (  1,131,184)  0.2626E-02 (  1,126,185)  0.1284E-02 (  1,129,184)  0.6838E-03 (  1,128,185)
   0.2766E-03 (  1,128,184)  0.1553E-03 (  1,124,184)  0.8965E-04 (  1,130,184)
     1 CALLS TO GCG PACKAGE FOR TRANSPORT TIME STEP   2 IN FLOW TIME STEP   2 STRESS PERIOD   3
    13 TOTAL ITERATIONS
  MAXIMUM CONCENTRATION CHANGES FOR EACH ITERATION:
  MAX. CHANGE LAYER,ROW,COL MAX. CHANGE LAYER,ROW,COL MAX. CHANGE LAYER,ROW,COL MAX. CHANGE LAYER,ROW,COL MAX. CHANGE LAYER,ROW,COL
 ------------------------------------------------------------------------------------------------------------------------------------
   0.2175     (  1,133,186)  0.1894     (  1,128,179)  0.8923E-01 (  1,129,180)  0.4488E-01 (  1,129,183)  0.2647E-01 (  1,128,183)
   0.1159E-01 (  1,127,183)  0.6226E-02 (  1,131,184)  0.2614E-02 (  1,126,185)  0.1298E-02 (  1,129,185)  0.6909E-03 (  1,128,185)
   0.2706E-03 (  1,128,184)  0.1579E-03 (  1,124,184)  0.8905E-04 (  1,130,184)
     1 CALLS TO GCG PACKAGE FOR TRANSPORT TIME STEP   2 IN FLOW TIME STEP   2 STRESS PERIOD   3
    14 TOTAL ITERATIONS
  MAXIMUM CONCENTRATION CHANGES FOR EACH ITERATION:
  MAX. CHANGE LAYER,ROW,COL MAX. CHANGE LAYER,ROW,COL MAX. CHANGE LAYER,ROW,COL MAX. CHANGE LAYER,ROW,COL MAX. CHANGE LAYER,ROW,COL
 ------------------------------------------------------------------------------------------------------------------------------------
   0.1992     (  1, 79, 91)  0.8686E-01 (  1, 79, 91)  0.4864E-01 (  1, 78, 91)  0.2382E-01 (  1, 79, 91)  0.1643E-01 (  1, 79, 92)
   0.6854E-02 (  1, 39, 89)  0.3382E-02 (  1, 79, 92)  0.2202E-02 (  1, 78, 92)  0.9055E-03 (  1, 40,114)  0.4517E-03 (  1, 40, 91)
   0.2735E-03 (  1, 41,113)  0.1414E-03 (  1, 40,115)  0.1001E-03 (  1, 40,114)  0.5370E-04 (  1, 39,114)
     1 CALLS TO GCG PACKAGE FOR TRANSPORT TIME STEP   2 IN FLOW TIME STEP   2 STRESS PERIOD   3
    13 TOTAL ITERATIONS
  MAXIMUM CONCENTRATION CHANGES FOR EACH ITERATION:
  MAX. CHANGE LAYER,ROW,COL MAX. CHANGE LAYER,ROW,COL MAX. CHANGE LAYER,ROW,COL MAX. CHANGE LAYER,ROW,COL MAX. CHANGE LAYER,ROW,COL
 ------------------------------------------------------------------------------------------------------------------------------------
   0.2055     (  1,133,186)  0.1781     (  1,128,179)  0.8673E-01 (  1,129,180)  0.4547E-01 (  1,129,183)  0.2949E-01 (  1,128,183)
   0.1215E-01 (  1,127,183)  0.5646E-02 (  1,127,185)  0.2695E-02 (  1,126,185)  0.1248E-02 (  1,128,179)  0.7274E-03 (  1,127,179)
   0.2810E-03 (  1,128,180)  0.1432E-03 (  1,130,185)  0.8154E-04 (  1,130,184)



 >>>>>>>>>>>>>>>>>>>>>>>>>>>>>>>>>>>>>>>>>>>>>>>>>>>>>>>FOR COMPONENT NO. 01<<<<<<<<<<<<<<<<<<<<<<<<<<<<<<<<<<<<<<<<<<<<<<<<<<<<<<<


                                            -------------------------------------------
                                                      TRANSPORT STEP NO.    2
                                            -------------------------------------------

 TOTAL ELAPSED TIME SINCE BEGINNING OF SIMULATION =   2800.000       d
 .....................................................................

                     CUMMULATIVE MASS BUDGETS AT END OF TRANSPORT STEP    2, TIME STEP    2, STRESS PERIOD    3
                     ------------------------------------------------------------------------------------------

                                                             IN                           OUT
                                                      ----------------             ----------------
                               CONSTANT CONCENTRATION:    0.000000                    0.000000    
                                        CONSTANT HEAD:    0.000000                  -0.4030305E-04
                                             RECHARGE:   0.3344208E+08                0.000000    
                                   EVAPOTRANSPIRATION:    0.000000                    143.2320    
                                MASS STORAGE (SOLUTE):    13028.47                  -0.3345213E+08
                            ---------------------------------------------------------------------------
                                              [TOTAL]:   0.3345511E+08   mg         -0.3345199E+08   mg

                                                          NET (IN - OUT):    3126.000    
                                                   DISCREPANCY (PERCENT):   0.9344300E-02



 >>>>>>>>>>>>>>>>>>>>>>>>>>>>>>>>>>>>>>>>>>>>>>>>>>>>>>>FOR COMPONENT NO. 02<<<<<<<<<<<<<<<<<<<<<<<<<<<<<<<<<<<<<<<<<<<<<<<<<<<<<<<


                                            -------------------------------------------
                                                      TRANSPORT STEP NO.    2
                                            -------------------------------------------

 TOTAL ELAPSED TIME SINCE BEGINNING OF SIMULATION =   2800.000       d
 .....................................................................

                     CUMMULATIVE MASS BUDGETS AT END OF TRANSPORT STEP    2, TIME STEP    2, STRESS PERIOD    3
                     ------------------------------------------------------------------------------------------

                                                             IN                           OUT
                                                      ----------------             ----------------
                               CONSTANT CONCENTRATION:    0.000000                    0.000000    
                                        CONSTANT HEAD:    0.000000                  -0.4032712E-05
                                             RECHARGE:    3259286.                    0.000000    
                                   EVAPOTRANSPIRATION:    0.000000                    13.92470    
                                MASS STORAGE (SOLUTE):    1275.673                   -3260274.    
                            ---------------------------------------------------------------------------
                                              [TOTAL]:    3260562.       mg          -3260260.       mg

                                                          NET (IN - OUT):    301.0000    
                                                   DISCREPANCY (PERCENT):   0.9231965E-02



 >>>>>>>>>>>>>>>>>>>>>>>>>>>>>>>>>>>>>>>>>>>>>>>>>>>>>>>FOR COMPONENT NO. 03<<<<<<<<<<<<<<<<<<<<<<<<<<<<<<<<<<<<<<<<<<<<<<<<<<<<<<<


                                            -------------------------------------------
                                                      TRANSPORT STEP NO.    2
                                            -------------------------------------------

 TOTAL ELAPSED TIME SINCE BEGINNING OF SIMULATION =   2800.000       d
 .....................................................................

                     CUMMULATIVE MASS BUDGETS AT END OF TRANSPORT STEP    2, TIME STEP    2, STRESS PERIOD    3
                     ------------------------------------------------------------------------------------------

                                                             IN                           OUT
                                                      ----------------             ----------------
                               CONSTANT CONCENTRATION:    0.000000                    0.000000    
                                        CONSTANT HEAD:    0.000000                  -0.2034390E-06
                                             RECHARGE:    119337.5                    0.000000    
                                   EVAPOTRANSPIRATION:    0.000000                   0.4231351    
                                MASS STORAGE (SOLUTE):    46.77038                   -119379.1    
                            ---------------------------------------------------------------------------
                                              [TOTAL]:    119384.3       mg          -119378.7       mg

                                                          NET (IN - OUT):    5.570312    
                                                   DISCREPANCY (PERCENT):   0.4665977E-02



 >>>>>>>>>>>>>>>>>>>>>>>>>>>>>>>>>>>>>>>>>>>>>>>>>>>>>>>FOR COMPONENT NO. 04<<<<<<<<<<<<<<<<<<<<<<<<<<<<<<<<<<<<<<<<<<<<<<<<<<<<<<<


                                            -------------------------------------------
                                                      TRANSPORT STEP NO.    2
                                            -------------------------------------------

 TOTAL ELAPSED TIME SINCE BEGINNING OF SIMULATION =   2800.000       d
 .....................................................................

                     CUMMULATIVE MASS BUDGETS AT END OF TRANSPORT STEP    2, TIME STEP    2, STRESS PERIOD    3
                     ------------------------------------------------------------------------------------------

                                                             IN                           OUT
                                                      ----------------             ----------------
                               CONSTANT CONCENTRATION:    0.000000                    0.000000    
                                        CONSTANT HEAD:    0.000000                  -0.4027669E-25
                                             RECHARGE:    21801.18                    0.000000    
                                   EVAPOTRANSPIRATION:    0.000000                   0.1478951    
                                MASS STORAGE (SOLUTE):    9.009172                   -21810.74    
                            ---------------------------------------------------------------------------
                                              [TOTAL]:    21810.19       mg          -21810.59       mg

                                                          NET (IN - OUT):  -0.4003906    
                                                   DISCREPANCY (PERCENT):  -0.1835779E-02


                                          ================================================
                                                         TIME STEP NO.  003
                                          ================================================

 FROM TIME =   2800.0     TO    3700.0    



     1 CALLS TO GCG PACKAGE FOR TRANSPORT TIME STEP   1 IN FLOW TIME STEP   3 STRESS PERIOD   3
    17 TOTAL ITERATIONS


     1 CALLS TO GCG PACKAGE FOR TRANSPORT TIME STEP   1 IN FLOW TIME STEP   3 STRESS PERIOD   3
    17 TOTAL ITERATIONS


     1 CALLS TO GCG PACKAGE FOR TRANSPORT TIME STEP   1 IN FLOW TIME STEP   3 STRESS PERIOD   3
    16 TOTAL ITERATIONS


     1 CALLS TO GCG PACKAGE FOR TRANSPORT TIME STEP   1 IN FLOW TIME STEP   3 STRESS PERIOD   3
    16 TOTAL ITERATIONS



 >>>>>>>>>>>>>>>>>>>>>>>>>>>>>>>>>>>>>>>>>>>>>>>>>>>>>>>FOR COMPONENT NO. 01<<<<<<<<<<<<<<<<<<<<<<<<<<<<<<<<<<<<<<<<<<<<<<<<<<<<<<<


                                            -------------------------------------------
                                                      TRANSPORT STEP NO.    1
                                            -------------------------------------------

 TOTAL ELAPSED TIME SINCE BEGINNING OF SIMULATION =   3361.084       d
 .....................................................................

                     CUMMULATIVE MASS BUDGETS AT END OF TRANSPORT STEP    1, TIME STEP    3, STRESS PERIOD    3
                     ------------------------------------------------------------------------------------------

                                                             IN                           OUT
                                                      ----------------             ----------------
                               CONSTANT CONCENTRATION:    0.000000                    0.000000    
                                        CONSTANT HEAD:    0.000000                  -0.3052098E-03
                                             RECHARGE:   0.4014344E+08                0.000000    
                                   EVAPOTRANSPIRATION:    0.000000                    151.7366    
                                MASS STORAGE (SOLUTE):    13084.78                  -0.4015268E+08
                            ---------------------------------------------------------------------------
                                              [TOTAL]:   0.4015652E+08   mg         -0.4015252E+08   mg

                                                          NET (IN - OUT):    3996.000    
                                                   DISCREPANCY (PERCENT):   0.9951557E-02



 >>>>>>>>>>>>>>>>>>>>>>>>>>>>>>>>>>>>>>>>>>>>>>>>>>>>>>>FOR COMPONENT NO. 02<<<<<<<<<<<<<<<<<<<<<<<<<<<<<<<<<<<<<<<<<<<<<<<<<<<<<<<


                                            -------------------------------------------
                                                      TRANSPORT STEP NO.    1
                                            -------------------------------------------

 TOTAL ELAPSED TIME SINCE BEGINNING OF SIMULATION =   3361.084       d
 .....................................................................

                     CUMMULATIVE MASS BUDGETS AT END OF TRANSPORT STEP    1, TIME STEP    3, STRESS PERIOD    3
                     ------------------------------------------------------------------------------------------

                                                             IN                           OUT
                                                      ----------------             ----------------
                               CONSTANT CONCENTRATION:    0.000000                    0.000000    
                                        CONSTANT HEAD:    0.000000                  -0.3052517E-04
                                             RECHARGE:    3912404.                    0.000000    
                                   EVAPOTRANSPIRATION:    0.000000                    14.82553    
                                MASS STORAGE (SOLUTE):    1281.450                   -3913311.    
                            ---------------------------------------------------------------------------
                                              [TOTAL]:    3913685.       mg          -3913296.       mg

                                                          NET (IN - OUT):    388.7500    
                                                   DISCREPANCY (PERCENT):   0.9933586E-02



 >>>>>>>>>>>>>>>>>>>>>>>>>>>>>>>>>>>>>>>>>>>>>>>>>>>>>>>FOR COMPONENT NO. 03<<<<<<<<<<<<<<<<<<<<<<<<<<<<<<<<<<<<<<<<<<<<<<<<<<<<<<<


                                            -------------------------------------------
                                                      TRANSPORT STEP NO.    1
                                            -------------------------------------------

 TOTAL ELAPSED TIME SINCE BEGINNING OF SIMULATION =   3361.084       d
 .....................................................................

                     CUMMULATIVE MASS BUDGETS AT END OF TRANSPORT STEP    1, TIME STEP    3, STRESS PERIOD    3
                     ------------------------------------------------------------------------------------------

                                                             IN                           OUT
                                                      ----------------             ----------------
                               CONSTANT CONCENTRATION:    0.000000                    0.000000    
                                        CONSTANT HEAD:    0.000000                  -0.1520462E-05
                                             RECHARGE:    143251.1                    0.000000    
                                   EVAPOTRANSPIRATION:    0.000000                   0.4743401    
                                MASS STORAGE (SOLUTE):    47.03207                   -143291.7    
                            ---------------------------------------------------------------------------
                                              [TOTAL]:    143298.2       mg          -143291.2       mg

                                                          NET (IN - OUT):    6.953125    
                                                   DISCREPANCY (PERCENT):   0.4852326E-02



 >>>>>>>>>>>>>>>>>>>>>>>>>>>>>>>>>>>>>>>>>>>>>>>>>>>>>>>FOR COMPONENT NO. 04<<<<<<<<<<<<<<<<<<<<<<<<<<<<<<<<<<<<<<<<<<<<<<<<<<<<<<<


                                            -------------------------------------------
                                                      TRANSPORT STEP NO.    1
                                            -------------------------------------------

 TOTAL ELAPSED TIME SINCE BEGINNING OF SIMULATION =   3361.084       d
 .....................................................................

                     CUMMULATIVE MASS BUDGETS AT END OF TRANSPORT STEP    1, TIME STEP    3, STRESS PERIOD    3
                     ------------------------------------------------------------------------------------------

                                                             IN                           OUT
                                                      ----------------             ----------------
                               CONSTANT CONCENTRATION:    0.000000                    0.000000    
                                        CONSTANT HEAD:    0.000000                  -0.1074114E-22
                                             RECHARGE:    26169.86                    0.000000    
                                   EVAPOTRANSPIRATION:    0.000000                   0.1519182    
                                MASS STORAGE (SOLUTE):    9.107579                   -26179.74    
                            ---------------------------------------------------------------------------
                                              [TOTAL]:    26178.96       mg          -26179.59       mg

                                                          NET (IN - OUT):  -0.6250000    
                                                   DISCREPANCY (PERCENT):  -0.2387384E-02
     1 CALLS TO GCG PACKAGE FOR TRANSPORT TIME STEP   2 IN FLOW TIME STEP   3 STRESS PERIOD   3
    13 TOTAL ITERATIONS
  MAXIMUM CONCENTRATION CHANGES FOR EACH ITERATION:
  MAX. CHANGE LAYER,ROW,COL MAX. CHANGE LAYER,ROW,COL MAX. CHANGE LAYER,ROW,COL MAX. CHANGE LAYER,ROW,COL MAX. CHANGE LAYER,ROW,COL
 ------------------------------------------------------------------------------------------------------------------------------------
   0.1967     (  1,133,186)  0.1801     (  1,128,180)  0.8547E-01 (  1,129,180)  0.4084E-01 (  1,129,183)  0.2537E-01 (  1,128,183)
   0.1091E-01 (  1,128,185)  0.5766E-02 (  1,131,184)  0.2549E-02 (  1,126,185)  0.1147E-02 (  1,129,184)  0.6027E-03 (  1,128,185)
   0.2482E-03 (  1,128,184)  0.1417E-03 (  1,124,184)  0.8380E-04 (  1,130,184)
     1 CALLS TO GCG PACKAGE FOR TRANSPORT TIME STEP   2 IN FLOW TIME STEP   3 STRESS PERIOD   3
    13 TOTAL ITERATIONS
  MAXIMUM CONCENTRATION CHANGES FOR EACH ITERATION:
  MAX. CHANGE LAYER,ROW,COL MAX. CHANGE LAYER,ROW,COL MAX. CHANGE LAYER,ROW,COL MAX. CHANGE LAYER,ROW,COL MAX. CHANGE LAYER,ROW,COL
 ------------------------------------------------------------------------------------------------------------------------------------
   0.1974     (  1,133,186)  0.1809     (  1,128,180)  0.8549E-01 (  1,129,180)  0.4099E-01 (  1,129,183)  0.2521E-01 (  1,128,183)
   0.1088E-01 (  1,127,183)  0.5779E-02 (  1,131,184)  0.2542E-02 (  1,126,185)  0.1150E-02 (  1,129,184)  0.6094E-03 (  1,128,185)
   0.2437E-03 (  1,128,180)  0.1443E-03 (  1,124,184)  0.8309E-04 (  1,130,184)
     1 CALLS TO GCG PACKAGE FOR TRANSPORT TIME STEP   2 IN FLOW TIME STEP   3 STRESS PERIOD   3
    13 TOTAL ITERATIONS
  MAXIMUM CONCENTRATION CHANGES FOR EACH ITERATION:
  MAX. CHANGE LAYER,ROW,COL MAX. CHANGE LAYER,ROW,COL MAX. CHANGE LAYER,ROW,COL MAX. CHANGE LAYER,ROW,COL MAX. CHANGE LAYER,ROW,COL
 ------------------------------------------------------------------------------------------------------------------------------------
   0.1515     (  1, 79, 91)  0.5790E-01 (  1, 79, 91)  0.3926E-01 (  1, 79, 92)  0.1834E-01 (  1, 41, 89)  0.1244E-01 (  1, 79, 92)
   0.5396E-02 (  1, 39, 89)  0.2331E-02 (  1, 40, 89)  0.1693E-02 (  1, 78, 92)  0.7185E-03 (  1, 40,114)  0.3500E-03 (  1, 40, 91)
   0.2198E-03 (  1, 41,113)  0.1106E-03 (  1, 40,115)  0.8082E-04 (  1, 40,114)
     1 CALLS TO GCG PACKAGE FOR TRANSPORT TIME STEP   2 IN FLOW TIME STEP   3 STRESS PERIOD   3
    13 TOTAL ITERATIONS
  MAXIMUM CONCENTRATION CHANGES FOR EACH ITERATION:
  MAX. CHANGE LAYER,ROW,COL MAX. CHANGE LAYER,ROW,COL MAX. CHANGE LAYER,ROW,COL MAX. CHANGE LAYER,ROW,COL MAX. CHANGE LAYER,ROW,COL
 ------------------------------------------------------------------------------------------------------------------------------------
   0.1889     (  1,133,186)  0.1716     (  1,128,180)  0.8291E-01 (  1,129,180)  0.4076E-01 (  1,129,183)  0.2744E-01 (  1,128,183)
   0.1156E-01 (  1,127,183)  0.5451E-02 (  1,127,185)  0.2602E-02 (  1,126,185)  0.1103E-02 (  1,128,179)  0.6669E-03 (  1,127,179)
   0.2689E-03 (  1,128,180)  0.1323E-03 (  1,130,185)  0.7677E-04 (  1,130,184)



 >>>>>>>>>>>>>>>>>>>>>>>>>>>>>>>>>>>>>>>>>>>>>>>>>>>>>>>FOR COMPONENT NO. 01<<<<<<<<<<<<<<<<<<<<<<<<<<<<<<<<<<<<<<<<<<<<<<<<<<<<<<<


                                            -------------------------------------------
                                                      TRANSPORT STEP NO.    2
                                            -------------------------------------------

 TOTAL ELAPSED TIME SINCE BEGINNING OF SIMULATION =   3700.000       d
 .....................................................................

                     CUMMULATIVE MASS BUDGETS AT END OF TRANSPORT STEP    2, TIME STEP    3, STRESS PERIOD    3
                     ------------------------------------------------------------------------------------------

                                                             IN                           OUT
                                                      ----------------             ----------------
                               CONSTANT CONCENTRATION:    0.000000                    0.000000    
                                        CONSTANT HEAD:    0.000000                  -0.7090842E-03
                                             RECHARGE:   0.4419131E+08                0.000000    
                                   EVAPOTRANSPIRATION:    0.000000                    163.5787    
                                MASS STORAGE (SOLUTE):    16640.32                  -0.4420374E+08
                            ---------------------------------------------------------------------------
                                              [TOTAL]:   0.4420795E+08   mg         -0.4420357E+08   mg

                                                          NET (IN - OUT):    4380.000    
                                                   DISCREPANCY (PERCENT):   0.9908211E-02



 >>>>>>>>>>>>>>>>>>>>>>>>>>>>>>>>>>>>>>>>>>>>>>>>>>>>>>>FOR COMPONENT NO. 02<<<<<<<<<<<<<<<<<<<<<<<<<<<<<<<<<<<<<<<<<<<<<<<<<<<<<<<


                                            -------------------------------------------
                                                      TRANSPORT STEP NO.    2
                                            -------------------------------------------

 TOTAL ELAPSED TIME SINCE BEGINNING OF SIMULATION =   3700.000       d
 .....................................................................

                     CUMMULATIVE MASS BUDGETS AT END OF TRANSPORT STEP    2, TIME STEP    3, STRESS PERIOD    3
                     ------------------------------------------------------------------------------------------

                                                             IN                           OUT
                                                      ----------------             ----------------
                               CONSTANT CONCENTRATION:    0.000000                    0.000000    
                                        CONSTANT HEAD:    0.000000                  -0.7091145E-04
                                             RECHARGE:    4306912.                    0.000000    
                                   EVAPOTRANSPIRATION:    0.000000                    16.03472    
                                MASS STORAGE (SOLUTE):    1591.785                   -4308092.    
                            ---------------------------------------------------------------------------
                                              [TOTAL]:    4308504.       mg          -4308076.       mg

                                                          NET (IN - OUT):    428.0000    
                                                   DISCREPANCY (PERCENT):   0.9934335E-02



 >>>>>>>>>>>>>>>>>>>>>>>>>>>>>>>>>>>>>>>>>>>>>>>>>>>>>>>FOR COMPONENT NO. 03<<<<<<<<<<<<<<<<<<<<<<<<<<<<<<<<<<<<<<<<<<<<<<<<<<<<<<<


                                            -------------------------------------------
                                                      TRANSPORT STEP NO.    2
                                            -------------------------------------------

 TOTAL ELAPSED TIME SINCE BEGINNING OF SIMULATION =   3700.000       d
 .....................................................................

                     CUMMULATIVE MASS BUDGETS AT END OF TRANSPORT STEP    2, TIME STEP    3, STRESS PERIOD    3
                     ------------------------------------------------------------------------------------------

                                                             IN                           OUT
                                                      ----------------             ----------------
                               CONSTANT CONCENTRATION:    0.000000                    0.000000    
                                        CONSTANT HEAD:    0.000000                  -0.3527646E-05
                                             RECHARGE:    157695.9                    0.000000    
                                   EVAPOTRANSPIRATION:    0.000000                   0.5188099    
                                MASS STORAGE (SOLUTE):    47.56130                   -157736.6    
                            ---------------------------------------------------------------------------
                                              [TOTAL]:    157743.5       mg          -157736.1       mg

                                                          NET (IN - OUT):    7.390625    
                                                   DISCREPANCY (PERCENT):   0.4685327E-02



 >>>>>>>>>>>>>>>>>>>>>>>>>>>>>>>>>>>>>>>>>>>>>>>>>>>>>>>FOR COMPONENT NO. 04<<<<<<<<<<<<<<<<<<<<<<<<<<<<<<<<<<<<<<<<<<<<<<<<<<<<<<<


                                            -------------------------------------------
                                                      TRANSPORT STEP NO.    2
                                            -------------------------------------------

 TOTAL ELAPSED TIME SINCE BEGINNING OF SIMULATION =   3700.000       d
 .....................................................................

                     CUMMULATIVE MASS BUDGETS AT END OF TRANSPORT STEP    2, TIME STEP    3, STRESS PERIOD    3
                     ------------------------------------------------------------------------------------------

                                                             IN                           OUT
                                                      ----------------             ----------------
                               CONSTANT CONCENTRATION:    0.000000                    0.000000    
                                        CONSTANT HEAD:    0.000000                  -0.7010116E-22
                                             RECHARGE:    28808.70                    0.000000    
                                   EVAPOTRANSPIRATION:    0.000000                   0.1695972    
                                MASS STORAGE (SOLUTE):    15.46701                   -28825.18    
                            ---------------------------------------------------------------------------
                                              [TOTAL]:    28824.17       mg          -28825.01       mg

                                                          NET (IN - OUT):  -0.8398438    
                                                   DISCREPANCY (PERCENT):  -0.2913636E-02


                                          ================================================
                                                         TIME STEP NO.  004
                                          ================================================

 FROM TIME =   3700.0     TO    4600.0    



     1 CALLS TO GCG PACKAGE FOR TRANSPORT TIME STEP   1 IN FLOW TIME STEP   4 STRESS PERIOD   3
    17 TOTAL ITERATIONS


     1 CALLS TO GCG PACKAGE FOR TRANSPORT TIME STEP   1 IN FLOW TIME STEP   4 STRESS PERIOD   3
    17 TOTAL ITERATIONS


     1 CALLS TO GCG PACKAGE FOR TRANSPORT TIME STEP   1 IN FLOW TIME STEP   4 STRESS PERIOD   3
    16 TOTAL ITERATIONS


     1 CALLS TO GCG PACKAGE FOR TRANSPORT TIME STEP   1 IN FLOW TIME STEP   4 STRESS PERIOD   3
    16 TOTAL ITERATIONS



 >>>>>>>>>>>>>>>>>>>>>>>>>>>>>>>>>>>>>>>>>>>>>>>>>>>>>>>FOR COMPONENT NO. 01<<<<<<<<<<<<<<<<<<<<<<<<<<<<<<<<<<<<<<<<<<<<<<<<<<<<<<<


                                            -------------------------------------------
                                                      TRANSPORT STEP NO.    1
                                            -------------------------------------------

 TOTAL ELAPSED TIME SINCE BEGINNING OF SIMULATION =   4261.084       d
 .....................................................................

                     CUMMULATIVE MASS BUDGETS AT END OF TRANSPORT STEP    1, TIME STEP    4, STRESS PERIOD    3
                     ------------------------------------------------------------------------------------------

                                                             IN                           OUT
                                                      ----------------             ----------------
                               CONSTANT CONCENTRATION:    0.000000                    0.000000    
                                        CONSTANT HEAD:    0.000000                  -0.3461217E-02
                                             RECHARGE:   0.5089266E+08                0.000000    
                                   EVAPOTRANSPIRATION:    0.000000                    182.9352    
                                MASS STORAGE (SOLUTE):    16728.44                  -0.5090424E+08
                            ---------------------------------------------------------------------------
                                              [TOTAL]:   0.5090939E+08   mg         -0.5090406E+08   mg

                                                          NET (IN - OUT):    5332.000    
                                                   DISCREPANCY (PERCENT):   0.1047406E-01



 >>>>>>>>>>>>>>>>>>>>>>>>>>>>>>>>>>>>>>>>>>>>>>>>>>>>>>>FOR COMPONENT NO. 02<<<<<<<<<<<<<<<<<<<<<<<<<<<<<<<<<<<<<<<<<<<<<<<<<<<<<<<


                                            -------------------------------------------
                                                      TRANSPORT STEP NO.    1
                                            -------------------------------------------

 TOTAL ELAPSED TIME SINCE BEGINNING OF SIMULATION =   4261.084       d
 .....................................................................

                     CUMMULATIVE MASS BUDGETS AT END OF TRANSPORT STEP    1, TIME STEP    4, STRESS PERIOD    3
                     ------------------------------------------------------------------------------------------

                                                             IN                           OUT
                                                      ----------------             ----------------
                               CONSTANT CONCENTRATION:    0.000000                    0.000000    
                                        CONSTANT HEAD:    0.000000                  -0.3461084E-03
                                             RECHARGE:    4960030.                    0.000000    
                                   EVAPOTRANSPIRATION:    0.000000                    18.05740    
                                MASS STORAGE (SOLUTE):    1600.492                   -4961122.    
                            ---------------------------------------------------------------------------
                                              [TOTAL]:    4961631.       mg          -4961104.       mg

                                                          NET (IN - OUT):    526.5000    
                                                   DISCREPANCY (PERCENT):   0.1061199E-01



 >>>>>>>>>>>>>>>>>>>>>>>>>>>>>>>>>>>>>>>>>>>>>>>>>>>>>>>FOR COMPONENT NO. 03<<<<<<<<<<<<<<<<<<<<<<<<<<<<<<<<<<<<<<<<<<<<<<<<<<<<<<<


                                            -------------------------------------------
                                                      TRANSPORT STEP NO.    1
                                            -------------------------------------------

 TOTAL ELAPSED TIME SINCE BEGINNING OF SIMULATION =   4261.084       d
 .....................................................................

                     CUMMULATIVE MASS BUDGETS AT END OF TRANSPORT STEP    1, TIME STEP    4, STRESS PERIOD    3
                     ------------------------------------------------------------------------------------------

                                                             IN                           OUT
                                                      ----------------             ----------------
                               CONSTANT CONCENTRATION:    0.000000                    0.000000    
                                        CONSTANT HEAD:    0.000000                  -0.1723569E-04
                                             RECHARGE:    181609.6                    0.000000    
                                   EVAPOTRANSPIRATION:    0.000000                   0.5986044    
                                MASS STORAGE (SOLUTE):    47.82250                   -181649.1    
                            ---------------------------------------------------------------------------
                                              [TOTAL]:    181657.4       mg          -181648.5       mg

                                                          NET (IN - OUT):    8.859375    
                                                   DISCREPANCY (PERCENT):   0.4877088E-02



 >>>>>>>>>>>>>>>>>>>>>>>>>>>>>>>>>>>>>>>>>>>>>>>>>>>>>>>FOR COMPONENT NO. 04<<<<<<<<<<<<<<<<<<<<<<<<<<<<<<<<<<<<<<<<<<<<<<<<<<<<<<<


                                            -------------------------------------------
                                                      TRANSPORT STEP NO.    1
                                            -------------------------------------------

 TOTAL ELAPSED TIME SINCE BEGINNING OF SIMULATION =   4261.084       d
 .....................................................................

                     CUMMULATIVE MASS BUDGETS AT END OF TRANSPORT STEP    1, TIME STEP    4, STRESS PERIOD    3
                     ------------------------------------------------------------------------------------------

                                                             IN                           OUT
                                                      ----------------             ----------------
                               CONSTANT CONCENTRATION:    0.000000                    0.000000    
                                        CONSTANT HEAD:    0.000000                  -0.2612179E-20
                                             RECHARGE:    33177.38                    0.000000    
                                   EVAPOTRANSPIRATION:    0.000000                   0.2057165    
                                MASS STORAGE (SOLUTE):    15.68752                   -33194.30    
                            ---------------------------------------------------------------------------
                                              [TOTAL]:    33193.07       mg          -33194.10       mg

                                                          NET (IN - OUT):   -1.031250    
                                                   DISCREPANCY (PERCENT):  -0.3106775E-02
     1 CALLS TO GCG PACKAGE FOR TRANSPORT TIME STEP   2 IN FLOW TIME STEP   4 STRESS PERIOD   3
    13 TOTAL ITERATIONS
  MAXIMUM CONCENTRATION CHANGES FOR EACH ITERATION:
  MAX. CHANGE LAYER,ROW,COL MAX. CHANGE LAYER,ROW,COL MAX. CHANGE LAYER,ROW,COL MAX. CHANGE LAYER,ROW,COL MAX. CHANGE LAYER,ROW,COL
 ------------------------------------------------------------------------------------------------------------------------------------
   0.1871     (  1,133,186)  0.1755     (  1,128,180)  0.8323E-01 (  1,129,180)  0.3855E-01 (  1,129,183)  0.2447E-01 (  1,128,183)
   0.1068E-01 (  1,128,185)  0.5522E-02 (  1,131,184)  0.2517E-02 (  1,126,185)  0.1049E-02 (  1,128,186)  0.5695E-03 (  1,128,185)
   0.2438E-03 (  1,128,184)  0.1349E-03 (  1,129,184)  0.8273E-04 (  1,130,184)
     1 CALLS TO GCG PACKAGE FOR TRANSPORT TIME STEP   2 IN FLOW TIME STEP   4 STRESS PERIOD   3
    13 TOTAL ITERATIONS
  MAXIMUM CONCENTRATION CHANGES FOR EACH ITERATION:
  MAX. CHANGE LAYER,ROW,COL MAX. CHANGE LAYER,ROW,COL MAX. CHANGE LAYER,ROW,COL MAX. CHANGE LAYER,ROW,COL MAX. CHANGE LAYER,ROW,COL
 ------------------------------------------------------------------------------------------------------------------------------------
   0.1876     (  1,133,186)  0.1762     (  1,128,180)  0.8325E-01 (  1,129,180)  0.3871E-01 (  1,129,183)  0.2434E-01 (  1,128,183)
   0.1056E-01 (  1,128,185)  0.5529E-02 (  1,131,184)  0.2513E-02 (  1,126,185)  0.1069E-02 (  1,128,186)  0.5767E-03 (  1,128,185)
   0.2385E-03 (  1,128,184)  0.1348E-03 (  1,124,184)  0.8208E-04 (  1,130,184)
     1 CALLS TO GCG PACKAGE FOR TRANSPORT TIME STEP   2 IN FLOW TIME STEP   4 STRESS PERIOD   3
    12 TOTAL ITERATIONS
  MAXIMUM CONCENTRATION CHANGES FOR EACH ITERATION:
  MAX. CHANGE LAYER,ROW,COL MAX. CHANGE LAYER,ROW,COL MAX. CHANGE LAYER,ROW,COL MAX. CHANGE LAYER,ROW,COL MAX. CHANGE LAYER,ROW,COL
 ------------------------------------------------------------------------------------------------------------------------------------
   0.1240     (  1, 79, 91)  0.4263E-01 (  1, 79, 91)  0.3361E-01 (  1, 79, 92)  0.1581E-01 (  1, 41, 89)  0.9897E-02 (  1, 79, 92)
   0.4534E-02 (  1, 39, 89)  0.1956E-02 (  1, 40, 89)  0.1365E-02 (  1, 78, 92)  0.6042E-03 (  1, 40,114)  0.2880E-03 (  1, 41,114)
   0.1869E-03 (  1, 41,113)  0.9155E-04 (  1, 40,115)
     1 CALLS TO GCG PACKAGE FOR TRANSPORT TIME STEP   2 IN FLOW TIME STEP   4 STRESS PERIOD   3
    13 TOTAL ITERATIONS
  MAXIMUM CONCENTRATION CHANGES FOR EACH ITERATION:
  MAX. CHANGE LAYER,ROW,COL MAX. CHANGE LAYER,ROW,COL MAX. CHANGE LAYER,ROW,COL MAX. CHANGE LAYER,ROW,COL MAX. CHANGE LAYER,ROW,COL
 ------------------------------------------------------------------------------------------------------------------------------------
   0.1809     (  1,133,186)  0.1684     (  1,128,180)  0.8086E-01 (  1,129,180)  0.3827E-01 (  1,129,183)  0.2608E-01 (  1,128,183)
   0.1116E-01 (  1,128,185)  0.5381E-02 (  1,127,185)  0.2564E-02 (  1,126,185)  0.1026E-02 (  1,128,179)  0.6278E-03 (  1,127,179)
   0.2593E-03 (  1,128,180)  0.1261E-03 (  1,130,185)  0.7570E-04 (  1,130,184)



 >>>>>>>>>>>>>>>>>>>>>>>>>>>>>>>>>>>>>>>>>>>>>>>>>>>>>>>FOR COMPONENT NO. 01<<<<<<<<<<<<<<<<<<<<<<<<<<<<<<<<<<<<<<<<<<<<<<<<<<<<<<<


                                            -------------------------------------------
                                                      TRANSPORT STEP NO.    2
                                            -------------------------------------------

 TOTAL ELAPSED TIME SINCE BEGINNING OF SIMULATION =   4600.000       d
 .....................................................................

                     CUMMULATIVE MASS BUDGETS AT END OF TRANSPORT STEP    2, TIME STEP    4, STRESS PERIOD    3
                     ------------------------------------------------------------------------------------------

                                                             IN                           OUT
                                                      ----------------             ----------------
                               CONSTANT CONCENTRATION:    0.000000                    0.000000    
                                        CONSTANT HEAD:    0.000000                  -0.7035815E-02
                                             RECHARGE:   0.5494054E+08                0.000000    
                                   EVAPOTRANSPIRATION:    0.000000                    202.3350    
                                MASS STORAGE (SOLUTE):    28981.30                  -0.5496399E+08
                            ---------------------------------------------------------------------------
                                              [TOTAL]:   0.5496952E+08   mg         -0.5496378E+08   mg

                                                          NET (IN - OUT):    5740.000    
                                                   DISCREPANCY (PERCENT):   0.1044269E-01



 >>>>>>>>>>>>>>>>>>>>>>>>>>>>>>>>>>>>>>>>>>>>>>>>>>>>>>>FOR COMPONENT NO. 02<<<<<<<<<<<<<<<<<<<<<<<<<<<<<<<<<<<<<<<<<<<<<<<<<<<<<<<


                                            -------------------------------------------
                                                      TRANSPORT STEP NO.    2
                                            -------------------------------------------

 TOTAL ELAPSED TIME SINCE BEGINNING OF SIMULATION =   4600.000       d
 .....................................................................

                     CUMMULATIVE MASS BUDGETS AT END OF TRANSPORT STEP    2, TIME STEP    4, STRESS PERIOD    3
                     ------------------------------------------------------------------------------------------

                                                             IN                           OUT
                                                      ----------------             ----------------
                               CONSTANT CONCENTRATION:    0.000000                    0.000000    
                                        CONSTANT HEAD:    0.000000                  -0.7035470E-03
                                             RECHARGE:    5354539.                    0.000000    
                                   EVAPOTRANSPIRATION:    0.000000                    20.03653    
                                MASS STORAGE (SOLUTE):    2692.172                   -5356684.    
                            ---------------------------------------------------------------------------
                                              [TOTAL]:    5357231.       mg          -5356664.       mg

                                                          NET (IN - OUT):    567.5000    
                                                   DISCREPANCY (PERCENT):   0.1059372E-01



 >>>>>>>>>>>>>>>>>>>>>>>>>>>>>>>>>>>>>>>>>>>>>>>>>>>>>>>FOR COMPONENT NO. 03<<<<<<<<<<<<<<<<<<<<<<<<<<<<<<<<<<<<<<<<<<<<<<<<<<<<<<<


                                            -------------------------------------------
                                                      TRANSPORT STEP NO.    2
                                            -------------------------------------------

 TOTAL ELAPSED TIME SINCE BEGINNING OF SIMULATION =   4600.000       d
 .....................................................................

                     CUMMULATIVE MASS BUDGETS AT END OF TRANSPORT STEP    2, TIME STEP    4, STRESS PERIOD    3
                     ------------------------------------------------------------------------------------------

                                                             IN                           OUT
                                                      ----------------             ----------------
                               CONSTANT CONCENTRATION:    0.000000                    0.000000    
                                        CONSTANT HEAD:    0.000000                  -0.3505483E-04
                                             RECHARGE:    196054.3                    0.000000    
                                   EVAPOTRANSPIRATION:    0.000000                   0.6600906    
                                MASS STORAGE (SOLUTE):    48.37560                   -196093.5    
                            ---------------------------------------------------------------------------
                                              [TOTAL]:    196102.7       mg          -196092.9       mg

                                                          NET (IN - OUT):    9.843750    
                                                   DISCREPANCY (PERCENT):   0.5019817E-02



 >>>>>>>>>>>>>>>>>>>>>>>>>>>>>>>>>>>>>>>>>>>>>>>>>>>>>>>FOR COMPONENT NO. 04<<<<<<<<<<<<<<<<<<<<<<<<<<<<<<<<<<<<<<<<<<<<<<<<<<<<<<<


                                            -------------------------------------------
                                                      TRANSPORT STEP NO.    2
                                            -------------------------------------------

 TOTAL ELAPSED TIME SINCE BEGINNING OF SIMULATION =   4600.000       d
 .....................................................................

                     CUMMULATIVE MASS BUDGETS AT END OF TRANSPORT STEP    2, TIME STEP    4, STRESS PERIOD    3
                     ------------------------------------------------------------------------------------------

                                                             IN                           OUT
                                                      ----------------             ----------------
                               CONSTANT CONCENTRATION:    0.000000                    0.000000    
                                        CONSTANT HEAD:    0.000000                  -0.8721810E-20
                                             RECHARGE:    35816.23                    0.000000    
                                   EVAPOTRANSPIRATION:    0.000000                   0.2460936    
                                MASS STORAGE (SOLUTE):    40.65926                   -35858.39    
                            ---------------------------------------------------------------------------
                                              [TOTAL]:    35856.89       mg          -35858.14       mg

                                                          NET (IN - OUT):   -1.253906    
                                                   DISCREPANCY (PERCENT):  -0.3496913E-02


                                          ================================================
                                                         TIME STEP NO.  005
                                          ================================================

 FROM TIME =   4600.0     TO    5500.0    



     1 CALLS TO GCG PACKAGE FOR TRANSPORT TIME STEP   1 IN FLOW TIME STEP   5 STRESS PERIOD   3
    17 TOTAL ITERATIONS


     1 CALLS TO GCG PACKAGE FOR TRANSPORT TIME STEP   1 IN FLOW TIME STEP   5 STRESS PERIOD   3
    17 TOTAL ITERATIONS


     1 CALLS TO GCG PACKAGE FOR TRANSPORT TIME STEP   1 IN FLOW TIME STEP   5 STRESS PERIOD   3
    16 TOTAL ITERATIONS


     1 CALLS TO GCG PACKAGE FOR TRANSPORT TIME STEP   1 IN FLOW TIME STEP   5 STRESS PERIOD   3
    16 TOTAL ITERATIONS



 >>>>>>>>>>>>>>>>>>>>>>>>>>>>>>>>>>>>>>>>>>>>>>>>>>>>>>>FOR COMPONENT NO. 01<<<<<<<<<<<<<<<<<<<<<<<<<<<<<<<<<<<<<<<<<<<<<<<<<<<<<<<


                                            -------------------------------------------
                                                      TRANSPORT STEP NO.    1
                                            -------------------------------------------

 TOTAL ELAPSED TIME SINCE BEGINNING OF SIMULATION =   5161.084       d
 .....................................................................

                     CUMMULATIVE MASS BUDGETS AT END OF TRANSPORT STEP    1, TIME STEP    5, STRESS PERIOD    3
                     ------------------------------------------------------------------------------------------

                                                             IN                           OUT
                                                      ----------------             ----------------
                               CONSTANT CONCENTRATION:    0.000000                    0.000000    
                                        CONSTANT HEAD:    0.000000                  -0.2580912E-01
                                             RECHARGE:   0.6164190E+08                0.000000    
                                   EVAPOTRANSPIRATION:    0.000000                    236.0264    
                                MASS STORAGE (SOLUTE):    29099.53                  -0.6166444E+08
                            ---------------------------------------------------------------------------
                                              [TOTAL]:   0.6167100E+08   mg         -0.6166420E+08   mg

                                                          NET (IN - OUT):    6796.000    
                                                   DISCREPANCY (PERCENT):   0.1102037E-01



 >>>>>>>>>>>>>>>>>>>>>>>>>>>>>>>>>>>>>>>>>>>>>>>>>>>>>>>FOR COMPONENT NO. 02<<<<<<<<<<<<<<<<<<<<<<<<<<<<<<<<<<<<<<<<<<<<<<<<<<<<<<<


                                            -------------------------------------------
                                                      TRANSPORT STEP NO.    1
                                            -------------------------------------------

 TOTAL ELAPSED TIME SINCE BEGINNING OF SIMULATION =   5161.084       d
 .....................................................................

                     CUMMULATIVE MASS BUDGETS AT END OF TRANSPORT STEP    1, TIME STEP    5, STRESS PERIOD    3
                     ------------------------------------------------------------------------------------------

                                                             IN                           OUT
                                                      ----------------             ----------------
                               CONSTANT CONCENTRATION:    0.000000                    0.000000    
                                        CONSTANT HEAD:    0.000000                  -0.2580795E-02
                                             RECHARGE:    6007657.                    0.000000    
                                   EVAPOTRANSPIRATION:    0.000000                    23.42287    
                                MASS STORAGE (SOLUTE):    2703.347                   -6009710.    
                            ---------------------------------------------------------------------------
                                              [TOTAL]:    6010360.       mg          -6009686.       mg

                                                          NET (IN - OUT):    674.0000    
                                                   DISCREPANCY (PERCENT):   0.1121460E-01



 >>>>>>>>>>>>>>>>>>>>>>>>>>>>>>>>>>>>>>>>>>>>>>>>>>>>>>>FOR COMPONENT NO. 03<<<<<<<<<<<<<<<<<<<<<<<<<<<<<<<<<<<<<<<<<<<<<<<<<<<<<<<


                                            -------------------------------------------
                                                      TRANSPORT STEP NO.    1
                                            -------------------------------------------

 TOTAL ELAPSED TIME SINCE BEGINNING OF SIMULATION =   5161.084       d
 .....................................................................

                     CUMMULATIVE MASS BUDGETS AT END OF TRANSPORT STEP    1, TIME STEP    5, STRESS PERIOD    3
                     ------------------------------------------------------------------------------------------

                                                             IN                           OUT
                                                      ----------------             ----------------
                               CONSTANT CONCENTRATION:    0.000000                    0.000000    
                                        CONSTANT HEAD:    0.000000                  -0.1287586E-03
                                             RECHARGE:    219968.0                    0.000000    
                                   EVAPOTRANSPIRATION:    0.000000                   0.7676584    
                                MASS STORAGE (SOLUTE):    48.67706                   -220005.9    
                            ---------------------------------------------------------------------------
                                              [TOTAL]:    220016.7       mg          -220005.1       mg

                                                          NET (IN - OUT):    11.57812    
                                                   DISCREPANCY (PERCENT):   0.5262524E-02



 >>>>>>>>>>>>>>>>>>>>>>>>>>>>>>>>>>>>>>>>>>>>>>>>>>>>>>>FOR COMPONENT NO. 04<<<<<<<<<<<<<<<<<<<<<<<<<<<<<<<<<<<<<<<<<<<<<<<<<<<<<<<


                                            -------------------------------------------
                                                      TRANSPORT STEP NO.    1
                                            -------------------------------------------

 TOTAL ELAPSED TIME SINCE BEGINNING OF SIMULATION =   5161.084       d
 .....................................................................

                     CUMMULATIVE MASS BUDGETS AT END OF TRANSPORT STEP    1, TIME STEP    5, STRESS PERIOD    3
                     ------------------------------------------------------------------------------------------

                                                             IN                           OUT
                                                      ----------------             ----------------
                               CONSTANT CONCENTRATION:    0.000000                    0.000000    
                                        CONSTANT HEAD:    0.000000                  -0.1289671E-18
                                             RECHARGE:    40184.90                    0.000000    
                                   EVAPOTRANSPIRATION:    0.000000                   0.3227403    
                                MASS STORAGE (SOLUTE):    40.95010                   -40227.57    
                            ---------------------------------------------------------------------------
                                              [TOTAL]:    40225.85       mg          -40227.25       mg

                                                          NET (IN - OUT):   -1.394531    
                                                   DISCREPANCY (PERCENT):  -0.3466694E-02
     1 CALLS TO GCG PACKAGE FOR TRANSPORT TIME STEP   2 IN FLOW TIME STEP   5 STRESS PERIOD   3
    13 TOTAL ITERATIONS
  MAXIMUM CONCENTRATION CHANGES FOR EACH ITERATION:
  MAX. CHANGE LAYER,ROW,COL MAX. CHANGE LAYER,ROW,COL MAX. CHANGE LAYER,ROW,COL MAX. CHANGE LAYER,ROW,COL MAX. CHANGE LAYER,ROW,COL
 ------------------------------------------------------------------------------------------------------------------------------------
   0.1851     (  1,127,180)  0.1729     (  1,128,180)  0.8208E-01 (  1,129,180)  0.3721E-01 (  1,129,183)  0.2399E-01 (  1,128,183)
   0.1052E-01 (  1,128,185)  0.5414E-02 (  1,127,185)  0.2491E-02 (  1,126,185)  0.1010E-02 (  1,128,186)  0.5413E-03 (  1,128,185)
   0.2364E-03 (  1,128,184)  0.1319E-03 (  1,129,184)  0.8100E-04 (  1,130,184)
     1 CALLS TO GCG PACKAGE FOR TRANSPORT TIME STEP   2 IN FLOW TIME STEP   5 STRESS PERIOD   3
    13 TOTAL ITERATIONS
  MAXIMUM CONCENTRATION CHANGES FOR EACH ITERATION:
  MAX. CHANGE LAYER,ROW,COL MAX. CHANGE LAYER,ROW,COL MAX. CHANGE LAYER,ROW,COL MAX. CHANGE LAYER,ROW,COL MAX. CHANGE LAYER,ROW,COL
 ------------------------------------------------------------------------------------------------------------------------------------
   0.1855     (  1,127,180)  0.1735     (  1,128,180)  0.8209E-01 (  1,129,180)  0.3738E-01 (  1,129,183)  0.2389E-01 (  1,128,183)
   0.1040E-01 (  1,128,185)  0.5403E-02 (  1,127,185)  0.2489E-02 (  1,126,185)  0.1029E-02 (  1,128,186)  0.5481E-03 (  1,128,185)
   0.2313E-03 (  1,128,184)  0.1303E-03 (  1,129,184)  0.8029E-04 (  1,130,184)
     1 CALLS TO GCG PACKAGE FOR TRANSPORT TIME STEP   2 IN FLOW TIME STEP   5 STRESS PERIOD   3
    12 TOTAL ITERATIONS
  MAXIMUM CONCENTRATION CHANGES FOR EACH ITERATION:
  MAX. CHANGE LAYER,ROW,COL MAX. CHANGE LAYER,ROW,COL MAX. CHANGE LAYER,ROW,COL MAX. CHANGE LAYER,ROW,COL MAX. CHANGE LAYER,ROW,COL
 ------------------------------------------------------------------------------------------------------------------------------------
   0.1061     (  1, 79, 91)  0.3343E-01 (  1, 79, 91)  0.2932E-01 (  1, 79, 92)  0.1410E-01 (  1, 41, 89)  0.8174E-02 (  1, 79, 92)
   0.3963E-02 (  1, 39, 89)  0.1716E-02 (  1, 40, 89)  0.1139E-02 (  1, 78, 92)  0.5246E-03 (  1, 40,114)  0.2469E-03 (  1, 41,114)
   0.1639E-03 (  1, 41,113)  0.7868E-04 (  1, 40,115)
     1 CALLS TO GCG PACKAGE FOR TRANSPORT TIME STEP   2 IN FLOW TIME STEP   5 STRESS PERIOD   3
    13 TOTAL ITERATIONS
  MAXIMUM CONCENTRATION CHANGES FOR EACH ITERATION:
  MAX. CHANGE LAYER,ROW,COL MAX. CHANGE LAYER,ROW,COL MAX. CHANGE LAYER,ROW,COL MAX. CHANGE LAYER,ROW,COL MAX. CHANGE LAYER,ROW,COL
 ------------------------------------------------------------------------------------------------------------------------------------
   0.1798     (  1,127,180)  0.1668     (  1,128,180)  0.7990E-01 (  1,129,180)  0.3687E-01 (  1,129,183)  0.2529E-01 (  1,128,183)
   0.1095E-01 (  1,128,185)  0.5324E-02 (  1,127,185)  0.2534E-02 (  1,126,185)  0.9899E-03 (  1,125,184)  0.6012E-03 (  1,127,179)
   0.2537E-03 (  1,128,180)  0.1261E-03 (  1,127,180)  0.7415E-04 (  1,130,184)



 >>>>>>>>>>>>>>>>>>>>>>>>>>>>>>>>>>>>>>>>>>>>>>>>>>>>>>>FOR COMPONENT NO. 01<<<<<<<<<<<<<<<<<<<<<<<<<<<<<<<<<<<<<<<<<<<<<<<<<<<<<<<


                                            -------------------------------------------
                                                      TRANSPORT STEP NO.    2
                                            -------------------------------------------

 TOTAL ELAPSED TIME SINCE BEGINNING OF SIMULATION =   5500.000       d
 .....................................................................

                     CUMMULATIVE MASS BUDGETS AT END OF TRANSPORT STEP    2, TIME STEP    5, STRESS PERIOD    3
                     ------------------------------------------------------------------------------------------

                                                             IN                           OUT
                                                      ----------------             ----------------
                               CONSTANT CONCENTRATION:    0.000000                    0.000000    
                                        CONSTANT HEAD:    0.000000                  -0.4742559E-01
                                             RECHARGE:   0.6568978E+08                0.000000    
                                   EVAPOTRANSPIRATION:    0.000000                    264.1880    
                                MASS STORAGE (SOLUTE):    49002.38                  -0.6573183E+08
                            ---------------------------------------------------------------------------
                                              [TOTAL]:   0.6573878E+08   mg         -0.6573157E+08   mg

                                                          NET (IN - OUT):    7212.000    
                                                   DISCREPANCY (PERCENT):   0.1097129E-01



 >>>>>>>>>>>>>>>>>>>>>>>>>>>>>>>>>>>>>>>>>>>>>>>>>>>>>>>FOR COMPONENT NO. 02<<<<<<<<<<<<<<<<<<<<<<<<<<<<<<<<<<<<<<<<<<<<<<<<<<<<<<<


                                            -------------------------------------------
                                                      TRANSPORT STEP NO.    2
                                            -------------------------------------------

 TOTAL ELAPSED TIME SINCE BEGINNING OF SIMULATION =   5500.000       d
 .....................................................................

                     CUMMULATIVE MASS BUDGETS AT END OF TRANSPORT STEP    2, TIME STEP    5, STRESS PERIOD    3
                     ------------------------------------------------------------------------------------------

                                                             IN                           OUT
                                                      ----------------             ----------------
                               CONSTANT CONCENTRATION:    0.000000                    0.000000    
                                        CONSTANT HEAD:    0.000000                  -0.4742374E-02
                                             RECHARGE:    6402166.                    0.000000    
                                   EVAPOTRANSPIRATION:    0.000000                    26.22455    
                                MASS STORAGE (SOLUTE):    4482.745                   -6405958.    
                            ---------------------------------------------------------------------------
                                              [TOTAL]:    6406648.       mg          -6405932.       mg

                                                          NET (IN - OUT):    715.5000    
                                                   DISCREPANCY (PERCENT):   0.1116871E-01



 >>>>>>>>>>>>>>>>>>>>>>>>>>>>>>>>>>>>>>>>>>>>>>>>>>>>>>>FOR COMPONENT NO. 03<<<<<<<<<<<<<<<<<<<<<<<<<<<<<<<<<<<<<<<<<<<<<<<<<<<<<<<


                                            -------------------------------------------
                                                      TRANSPORT STEP NO.    2
                                            -------------------------------------------

 TOTAL ELAPSED TIME SINCE BEGINNING OF SIMULATION =   5500.000       d
 .....................................................................

                     CUMMULATIVE MASS BUDGETS AT END OF TRANSPORT STEP    2, TIME STEP    5, STRESS PERIOD    3
                     ------------------------------------------------------------------------------------------

                                                             IN                           OUT
                                                      ----------------             ----------------
                               CONSTANT CONCENTRATION:    0.000000                    0.000000    
                                        CONSTANT HEAD:    0.000000                  -0.2367093E-03
                                             RECHARGE:    234412.8                    0.000000    
                                   EVAPOTRANSPIRATION:    0.000000                   0.8477209    
                                MASS STORAGE (SOLUTE):    49.27071                   -234450.3    
                            ---------------------------------------------------------------------------
                                              [TOTAL]:    234462.0       mg          -234449.4       mg

                                                          NET (IN - OUT):    12.62500    
                                                   DISCREPANCY (PERCENT):   0.5384812E-02



 >>>>>>>>>>>>>>>>>>>>>>>>>>>>>>>>>>>>>>>>>>>>>>>>>>>>>>>FOR COMPONENT NO. 04<<<<<<<<<<<<<<<<<<<<<<<<<<<<<<<<<<<<<<<<<<<<<<<<<<<<<<<


                                            -------------------------------------------
                                                      TRANSPORT STEP NO.    2
                                            -------------------------------------------

 TOTAL ELAPSED TIME SINCE BEGINNING OF SIMULATION =   5500.000       d
 .....................................................................

                     CUMMULATIVE MASS BUDGETS AT END OF TRANSPORT STEP    2, TIME STEP    5, STRESS PERIOD    3
                     ------------------------------------------------------------------------------------------

                                                             IN                           OUT
                                                      ----------------             ----------------
                               CONSTANT CONCENTRATION:    0.000000                    0.000000    
                                        CONSTANT HEAD:    0.000000                  -0.3460573E-18
                                             RECHARGE:    42823.75                    0.000000    
                                   EVAPOTRANSPIRATION:    0.000000                   0.3869925    
                                MASS STORAGE (SOLUTE):    82.34782                   -42908.09    
                            ---------------------------------------------------------------------------
                                              [TOTAL]:    42906.10       mg          -42907.71       mg

                                                          NET (IN - OUT):   -1.609375    
                                                   DISCREPANCY (PERCENT):  -0.3750853E-02


                                          ================================================
                                                         TIME STEP NO.  006
                                          ================================================

 FROM TIME =   5500.0     TO    6400.0    



     1 CALLS TO GCG PACKAGE FOR TRANSPORT TIME STEP   1 IN FLOW TIME STEP   6 STRESS PERIOD   3
    16 TOTAL ITERATIONS


     1 CALLS TO GCG PACKAGE FOR TRANSPORT TIME STEP   1 IN FLOW TIME STEP   6 STRESS PERIOD   3
    17 TOTAL ITERATIONS


     1 CALLS TO GCG PACKAGE FOR TRANSPORT TIME STEP   1 IN FLOW TIME STEP   6 STRESS PERIOD   3
    15 TOTAL ITERATIONS


     1 CALLS TO GCG PACKAGE FOR TRANSPORT TIME STEP   1 IN FLOW TIME STEP   6 STRESS PERIOD   3
    16 TOTAL ITERATIONS



 >>>>>>>>>>>>>>>>>>>>>>>>>>>>>>>>>>>>>>>>>>>>>>>>>>>>>>>FOR COMPONENT NO. 01<<<<<<<<<<<<<<<<<<<<<<<<<<<<<<<<<<<<<<<<<<<<<<<<<<<<<<<


                                            -------------------------------------------
                                                      TRANSPORT STEP NO.    1
                                            -------------------------------------------

 TOTAL ELAPSED TIME SINCE BEGINNING OF SIMULATION =   6061.084       d
 .....................................................................

                     CUMMULATIVE MASS BUDGETS AT END OF TRANSPORT STEP    1, TIME STEP    6, STRESS PERIOD    3
                     ------------------------------------------------------------------------------------------

                                                             IN                           OUT
                                                      ----------------             ----------------
                               CONSTANT CONCENTRATION:    0.000000                    0.000000    
                                        CONSTANT HEAD:    0.000000                  -0.1415343    
                                             RECHARGE:   0.7239113E+08                0.000000    
                                   EVAPOTRANSPIRATION:    0.000000                    310.8690    
                                MASS STORAGE (SOLUTE):    49279.60                  -0.7243190E+08
                            ---------------------------------------------------------------------------
                                              [TOTAL]:   0.7244041E+08   mg         -0.7243158E+08   mg

                                                          NET (IN - OUT):    8824.000    
                                                   DISCREPANCY (PERCENT):   0.1218179E-01



 >>>>>>>>>>>>>>>>>>>>>>>>>>>>>>>>>>>>>>>>>>>>>>>>>>>>>>>FOR COMPONENT NO. 02<<<<<<<<<<<<<<<<<<<<<<<<<<<<<<<<<<<<<<<<<<<<<<<<<<<<<<<


                                            -------------------------------------------
                                                      TRANSPORT STEP NO.    1
                                            -------------------------------------------

 TOTAL ELAPSED TIME SINCE BEGINNING OF SIMULATION =   6061.084       d
 .....................................................................

                     CUMMULATIVE MASS BUDGETS AT END OF TRANSPORT STEP    1, TIME STEP    6, STRESS PERIOD    3
                     ------------------------------------------------------------------------------------------

                                                             IN                           OUT
                                                      ----------------             ----------------
                               CONSTANT CONCENTRATION:    0.000000                    0.000000    
                                        CONSTANT HEAD:    0.000000                  -0.1415128E-01
                                             RECHARGE:    7055284.                    0.000000    
                                   EVAPOTRANSPIRATION:    0.000000                    30.82249    
                                MASS STORAGE (SOLUTE):    4506.496                   -7058994.    
                            ---------------------------------------------------------------------------
                                              [TOTAL]:    7059790.       mg          -7058962.       mg

                                                          NET (IN - OUT):    827.5000    
                                                   DISCREPANCY (PERCENT):   0.1172200E-01



 >>>>>>>>>>>>>>>>>>>>>>>>>>>>>>>>>>>>>>>>>>>>>>>>>>>>>>>FOR COMPONENT NO. 03<<<<<<<<<<<<<<<<<<<<<<<<<<<<<<<<<<<<<<<<<<<<<<<<<<<<<<<


                                            -------------------------------------------
                                                      TRANSPORT STEP NO.    1
                                            -------------------------------------------

 TOTAL ELAPSED TIME SINCE BEGINNING OF SIMULATION =   6061.084       d
 .....................................................................

                     CUMMULATIVE MASS BUDGETS AT END OF TRANSPORT STEP    1, TIME STEP    6, STRESS PERIOD    3
                     ------------------------------------------------------------------------------------------

                                                             IN                           OUT
                                                      ----------------             ----------------
                               CONSTANT CONCENTRATION:    0.000000                    0.000000    
                                        CONSTANT HEAD:    0.000000                  -0.7069728E-03
                                             RECHARGE:    258326.4                    0.000000    
                                   EVAPOTRANSPIRATION:    0.000000                   0.9867607    
                                MASS STORAGE (SOLUTE):    49.61729                   -258361.6    
                            ---------------------------------------------------------------------------
                                              [TOTAL]:    258376.1       mg          -258360.6       mg

                                                          NET (IN - OUT):    15.45312    
                                                   DISCREPANCY (PERCENT):   0.5981044E-02



 >>>>>>>>>>>>>>>>>>>>>>>>>>>>>>>>>>>>>>>>>>>>>>>>>>>>>>>FOR COMPONENT NO. 04<<<<<<<<<<<<<<<<<<<<<<<<<<<<<<<<<<<<<<<<<<<<<<<<<<<<<<<


                                            -------------------------------------------
                                                      TRANSPORT STEP NO.    1
                                            -------------------------------------------

 TOTAL ELAPSED TIME SINCE BEGINNING OF SIMULATION =   6061.084       d
 .....................................................................

                     CUMMULATIVE MASS BUDGETS AT END OF TRANSPORT STEP    1, TIME STEP    6, STRESS PERIOD    3
                     ------------------------------------------------------------------------------------------

                                                             IN                           OUT
                                                      ----------------             ----------------
                               CONSTANT CONCENTRATION:    0.000000                    0.000000    
                                        CONSTANT HEAD:    0.000000                  -0.3163372E-17
                                             RECHARGE:    47192.43                    0.000000    
                                   EVAPOTRANSPIRATION:    0.000000                   0.4996086    
                                MASS STORAGE (SOLUTE):    82.83171                   -47277.50    
                            ---------------------------------------------------------------------------
                                              [TOTAL]:    47275.26       mg          -47277.00       mg

                                                          NET (IN - OUT):   -1.746094    
                                                   DISCREPANCY (PERCENT):  -0.3693394E-02
     1 CALLS TO GCG PACKAGE FOR TRANSPORT TIME STEP   2 IN FLOW TIME STEP   6 STRESS PERIOD   3
    13 TOTAL ITERATIONS
  MAXIMUM CONCENTRATION CHANGES FOR EACH ITERATION:
  MAX. CHANGE LAYER,ROW,COL MAX. CHANGE LAYER,ROW,COL MAX. CHANGE LAYER,ROW,COL MAX. CHANGE LAYER,ROW,COL MAX. CHANGE LAYER,ROW,COL
 ------------------------------------------------------------------------------------------------------------------------------------
   0.1847     (  1,127,180)  0.1712     (  1,128,180)  0.8133E-01 (  1,129,180)  0.3629E-01 (  1,129,183)  0.2365E-01 (  1,128,183)
   0.1041E-01 (  1,128,185)  0.5353E-02 (  1,127,185)  0.2475E-02 (  1,126,185)  0.9814E-03 (  1,128,186)  0.5209E-03 (  1,128,185)
   0.2303E-03 (  1,128,184)  0.1293E-03 (  1,129,184)  0.7957E-04 (  1,130,184)
     1 CALLS TO GCG PACKAGE FOR TRANSPORT TIME STEP   2 IN FLOW TIME STEP   6 STRESS PERIOD   3
    13 TOTAL ITERATIONS
  MAXIMUM CONCENTRATION CHANGES FOR EACH ITERATION:
  MAX. CHANGE LAYER,ROW,COL MAX. CHANGE LAYER,ROW,COL MAX. CHANGE LAYER,ROW,COL MAX. CHANGE LAYER,ROW,COL MAX. CHANGE LAYER,ROW,COL
 ------------------------------------------------------------------------------------------------------------------------------------
   0.1851     (  1,127,180)  0.1718     (  1,128,180)  0.8134E-01 (  1,129,180)  0.3647E-01 (  1,129,183)  0.2357E-01 (  1,128,183)
   0.1029E-01 (  1,128,185)  0.5342E-02 (  1,127,185)  0.2474E-02 (  1,126,185)  0.1000E-02 (  1,128,186)  0.5274E-03 (  1,128,185)
   0.2258E-03 (  1,128,180)  0.1276E-03 (  1,129,184)  0.7886E-04 (  1,130,184)
     1 CALLS TO GCG PACKAGE FOR TRANSPORT TIME STEP   2 IN FLOW TIME STEP   6 STRESS PERIOD   3
    12 TOTAL ITERATIONS
  MAXIMUM CONCENTRATION CHANGES FOR EACH ITERATION:
  MAX. CHANGE LAYER,ROW,COL MAX. CHANGE LAYER,ROW,COL MAX. CHANGE LAYER,ROW,COL MAX. CHANGE LAYER,ROW,COL MAX. CHANGE LAYER,ROW,COL
 ------------------------------------------------------------------------------------------------------------------------------------
   0.9359E-01 (  1, 79, 91)  0.2880E-01 (  1, 39, 89)  0.2604E-01 (  1, 79, 92)  0.1283E-01 (  1, 41, 89)  0.6965E-02 (  1, 79, 92)
   0.3608E-02 (  1, 78, 92)  0.1550E-02 (  1, 40, 89)  0.9772E-03 (  1, 78, 92)  0.4646E-03 (  1, 40,114)  0.2171E-03 (  1, 41,114)
   0.1465E-03 (  1, 41,113)  0.6896E-04 (  1, 40,115)
     1 CALLS TO GCG PACKAGE FOR TRANSPORT TIME STEP   2 IN FLOW TIME STEP   6 STRESS PERIOD   3
    13 TOTAL ITERATIONS
  MAXIMUM CONCENTRATION CHANGES FOR EACH ITERATION:
  MAX. CHANGE LAYER,ROW,COL MAX. CHANGE LAYER,ROW,COL MAX. CHANGE LAYER,ROW,COL MAX. CHANGE LAYER,ROW,COL MAX. CHANGE LAYER,ROW,COL
 ------------------------------------------------------------------------------------------------------------------------------------
   0.1801     (  1,127,180)  0.1658     (  1,128,180)  0.7934E-01 (  1,129,180)  0.3597E-01 (  1,129,183)  0.2476E-01 (  1,128,183)
   0.1080E-01 (  1,128,182)  0.5279E-02 (  1,127,185)  0.2516E-02 (  1,126,185)  0.9740E-03 (  1,125,184)  0.5830E-03 (  1,127,179)
   0.2496E-03 (  1,128,180)  0.1264E-03 (  1,127,180)  0.7296E-04 (  1,130,184)



 >>>>>>>>>>>>>>>>>>>>>>>>>>>>>>>>>>>>>>>>>>>>>>>>>>>>>>>FOR COMPONENT NO. 01<<<<<<<<<<<<<<<<<<<<<<<<<<<<<<<<<<<<<<<<<<<<<<<<<<<<<<<


                                            -------------------------------------------
                                                      TRANSPORT STEP NO.    2
                                            -------------------------------------------

 TOTAL ELAPSED TIME SINCE BEGINNING OF SIMULATION =   6400.000       d
 .....................................................................

                     CUMMULATIVE MASS BUDGETS AT END OF TRANSPORT STEP    2, TIME STEP    6, STRESS PERIOD    3
                     ------------------------------------------------------------------------------------------

                                                             IN                           OUT
                                                      ----------------             ----------------
                               CONSTANT CONCENTRATION:    0.000000                    0.000000    
                                        CONSTANT HEAD:    0.000000                  -0.2402053    
                                             RECHARGE:   0.7643901E+08                0.000000    
                                   EVAPOTRANSPIRATION:    0.000000                    346.1696    
                                MASS STORAGE (SOLUTE):    75344.45                  -0.7650544E+08
                            ---------------------------------------------------------------------------
                                              [TOTAL]:   0.7651435E+08   mg         -0.7650510E+08   mg

                                                          NET (IN - OUT):    9256.000    
                                                   DISCREPANCY (PERCENT):   0.1209781E-01



 >>>>>>>>>>>>>>>>>>>>>>>>>>>>>>>>>>>>>>>>>>>>>>>>>>>>>>>FOR COMPONENT NO. 02<<<<<<<<<<<<<<<<<<<<<<<<<<<<<<<<<<<<<<<<<<<<<<<<<<<<<<<


                                            -------------------------------------------
                                                      TRANSPORT STEP NO.    2
                                            -------------------------------------------

 TOTAL ELAPSED TIME SINCE BEGINNING OF SIMULATION =   6400.000       d
 .....................................................................

                     CUMMULATIVE MASS BUDGETS AT END OF TRANSPORT STEP    2, TIME STEP    6, STRESS PERIOD    3
                     ------------------------------------------------------------------------------------------

                                                             IN                           OUT
                                                      ----------------             ----------------
                               CONSTANT CONCENTRATION:    0.000000                    0.000000    
                                        CONSTANT HEAD:    0.000000                  -0.2401698E-01
                                             RECHARGE:    7449792.                    0.000000    
                                   EVAPOTRANSPIRATION:    0.000000                    34.28212    
                                MASS STORAGE (SOLUTE):    6839.888                   -7455794.    
                            ---------------------------------------------------------------------------
                                              [TOTAL]:    7456632.       mg          -7455760.       mg

                                                          NET (IN - OUT):    872.5000    
                                                   DISCREPANCY (PERCENT):   0.1170168E-01



 >>>>>>>>>>>>>>>>>>>>>>>>>>>>>>>>>>>>>>>>>>>>>>>>>>>>>>>FOR COMPONENT NO. 03<<<<<<<<<<<<<<<<<<<<<<<<<<<<<<<<<<<<<<<<<<<<<<<<<<<<<<<


                                            -------------------------------------------
                                                      TRANSPORT STEP NO.    2
                                            -------------------------------------------

 TOTAL ELAPSED TIME SINCE BEGINNING OF SIMULATION =   6400.000       d
 .....................................................................

                     CUMMULATIVE MASS BUDGETS AT END OF TRANSPORT STEP    2, TIME STEP    6, STRESS PERIOD    3
                     ------------------------------------------------------------------------------------------

                                                             IN                           OUT
                                                      ----------------             ----------------
                               CONSTANT CONCENTRATION:    0.000000                    0.000000    
                                        CONSTANT HEAD:    0.000000                  -0.1200174E-02
                                             RECHARGE:    272771.2                    0.000000    
                                   EVAPOTRANSPIRATION:    0.000000                    1.085651    
                                MASS STORAGE (SOLUTE):    50.22331                   -272805.8    
                            ---------------------------------------------------------------------------
                                              [TOTAL]:    272821.4       mg          -272804.8       mg

                                                          NET (IN - OUT):    16.68750    
                                                   DISCREPANCY (PERCENT):   0.6116825E-02



 >>>>>>>>>>>>>>>>>>>>>>>>>>>>>>>>>>>>>>>>>>>>>>>>>>>>>>>FOR COMPONENT NO. 04<<<<<<<<<<<<<<<<<<<<<<<<<<<<<<<<<<<<<<<<<<<<<<<<<<<<<<<


                                            -------------------------------------------
                                                      TRANSPORT STEP NO.    2
                                            -------------------------------------------

 TOTAL ELAPSED TIME SINCE BEGINNING OF SIMULATION =   6400.000       d
 .....................................................................

                     CUMMULATIVE MASS BUDGETS AT END OF TRANSPORT STEP    2, TIME STEP    6, STRESS PERIOD    3
                     ------------------------------------------------------------------------------------------

                                                             IN                           OUT
                                                      ----------------             ----------------
                               CONSTANT CONCENTRATION:    0.000000                    0.000000    
                                        CONSTANT HEAD:    0.000000                  -0.7523888E-17
                                             RECHARGE:    49831.27                    0.000000    
                                   EVAPOTRANSPIRATION:    0.000000                   0.5841928    
                                MASS STORAGE (SOLUTE):    137.4113                   -49971.22    
                            ---------------------------------------------------------------------------
                                              [TOTAL]:    49968.68       mg          -49970.64       mg

                                                          NET (IN - OUT):   -1.953125    
                                                   DISCREPANCY (PERCENT):  -0.3908622E-02


                                          ================================================
                                                         TIME STEP NO.  007
                                          ================================================

 FROM TIME =   6400.0     TO    7300.0    



     1 CALLS TO GCG PACKAGE FOR TRANSPORT TIME STEP   1 IN FLOW TIME STEP   7 STRESS PERIOD   3
    16 TOTAL ITERATIONS


     1 CALLS TO GCG PACKAGE FOR TRANSPORT TIME STEP   1 IN FLOW TIME STEP   7 STRESS PERIOD   3
    16 TOTAL ITERATIONS


     1 CALLS TO GCG PACKAGE FOR TRANSPORT TIME STEP   1 IN FLOW TIME STEP   7 STRESS PERIOD   3
    15 TOTAL ITERATIONS


     1 CALLS TO GCG PACKAGE FOR TRANSPORT TIME STEP   1 IN FLOW TIME STEP   7 STRESS PERIOD   3
    16 TOTAL ITERATIONS



 >>>>>>>>>>>>>>>>>>>>>>>>>>>>>>>>>>>>>>>>>>>>>>>>>>>>>>>FOR COMPONENT NO. 01<<<<<<<<<<<<<<<<<<<<<<<<<<<<<<<<<<<<<<<<<<<<<<<<<<<<<<<


                                            -------------------------------------------
                                                      TRANSPORT STEP NO.    1
                                            -------------------------------------------

 TOTAL ELAPSED TIME SINCE BEGINNING OF SIMULATION =   6961.084       d
 .....................................................................

                     CUMMULATIVE MASS BUDGETS AT END OF TRANSPORT STEP    1, TIME STEP    7, STRESS PERIOD    3
                     ------------------------------------------------------------------------------------------

                                                             IN                           OUT
                                                      ----------------             ----------------
                               CONSTANT CONCENTRATION:    0.000000                    0.000000    
                                        CONSTANT HEAD:    0.000000                  -0.6126937    
                                             RECHARGE:   0.8314036E+08                0.000000    
                                   EVAPOTRANSPIRATION:    0.000000                    406.2807    
                                MASS STORAGE (SOLUTE):    76135.05                  -0.8320597E+08
                            ---------------------------------------------------------------------------
                                              [TOTAL]:   0.8321650E+08   mg         -0.8320556E+08   mg

                                                          NET (IN - OUT):    10936.00    
                                                   DISCREPANCY (PERCENT):   0.1314249E-01



 >>>>>>>>>>>>>>>>>>>>>>>>>>>>>>>>>>>>>>>>>>>>>>>>>>>>>>>FOR COMPONENT NO. 02<<<<<<<<<<<<<<<<<<<<<<<<<<<<<<<<<<<<<<<<<<<<<<<<<<<<<<<


                                            -------------------------------------------
                                                      TRANSPORT STEP NO.    1
                                            -------------------------------------------

 TOTAL ELAPSED TIME SINCE BEGINNING OF SIMULATION =   6961.084       d
 .....................................................................

                     CUMMULATIVE MASS BUDGETS AT END OF TRANSPORT STEP    1, TIME STEP    7, STRESS PERIOD    3
                     ------------------------------------------------------------------------------------------

                                                             IN                           OUT
                                                      ----------------             ----------------
                               CONSTANT CONCENTRATION:    0.000000                    0.000000    
                                        CONSTANT HEAD:    0.000000                  -0.6126419E-01
                                             RECHARGE:    8102910.                    0.000000    
                                   EVAPOTRANSPIRATION:    0.000000                    39.94621    
                                MASS STORAGE (SOLUTE):    6908.957                   -8108817.    
                            ---------------------------------------------------------------------------
                                              [TOTAL]:    8109819.       mg          -8108777.       mg

                                                          NET (IN - OUT):    1042.000    
                                                   DISCREPANCY (PERCENT):   0.1284945E-01



 >>>>>>>>>>>>>>>>>>>>>>>>>>>>>>>>>>>>>>>>>>>>>>>>>>>>>>>FOR COMPONENT NO. 03<<<<<<<<<<<<<<<<<<<<<<<<<<<<<<<<<<<<<<<<<<<<<<<<<<<<<<<


                                            -------------------------------------------
                                                      TRANSPORT STEP NO.    1
                                            -------------------------------------------

 TOTAL ELAPSED TIME SINCE BEGINNING OF SIMULATION =   6961.084       d
 .....................................................................

                     CUMMULATIVE MASS BUDGETS AT END OF TRANSPORT STEP    1, TIME STEP    7, STRESS PERIOD    3
                     ------------------------------------------------------------------------------------------

                                                             IN                           OUT
                                                      ----------------             ----------------
                               CONSTANT CONCENTRATION:    0.000000                    0.000000    
                                        CONSTANT HEAD:    0.000000                  -0.3062727E-02
                                             RECHARGE:    296684.9                    0.000000    
                                   EVAPOTRANSPIRATION:    0.000000                    1.252583    
                                MASS STORAGE (SOLUTE):    50.60387                   -296716.9    
                            ---------------------------------------------------------------------------
                                              [TOTAL]:    296735.5       mg          -296715.7       mg

                                                          NET (IN - OUT):    19.81250    
                                                   DISCREPANCY (PERCENT):   0.6677045E-02



 >>>>>>>>>>>>>>>>>>>>>>>>>>>>>>>>>>>>>>>>>>>>>>>>>>>>>>>FOR COMPONENT NO. 04<<<<<<<<<<<<<<<<<<<<<<<<<<<<<<<<<<<<<<<<<<<<<<<<<<<<<<<


                                            -------------------------------------------
                                                      TRANSPORT STEP NO.    1
                                            -------------------------------------------

 TOTAL ELAPSED TIME SINCE BEGINNING OF SIMULATION =   6961.084       d
 .....................................................................

                     CUMMULATIVE MASS BUDGETS AT END OF TRANSPORT STEP    1, TIME STEP    7, STRESS PERIOD    3
                     ------------------------------------------------------------------------------------------

                                                             IN                           OUT
                                                      ----------------             ----------------
                               CONSTANT CONCENTRATION:    0.000000                    0.000000    
                                        CONSTANT HEAD:    0.000000                  -0.5051206E-16
                                             RECHARGE:    54199.95                    0.000000    
                                   EVAPOTRANSPIRATION:    0.000000                   0.7281494    
                                MASS STORAGE (SOLUTE):    138.8561                   -54341.60    
                            ---------------------------------------------------------------------------
                                              [TOTAL]:    54338.80       mg          -54340.87       mg

                                                          NET (IN - OUT):   -2.066406    
                                                   DISCREPANCY (PERCENT):  -0.3802747E-02
     1 CALLS TO GCG PACKAGE FOR TRANSPORT TIME STEP   2 IN FLOW TIME STEP   7 STRESS PERIOD   3
    13 TOTAL ITERATIONS
  MAXIMUM CONCENTRATION CHANGES FOR EACH ITERATION:
  MAX. CHANGE LAYER,ROW,COL MAX. CHANGE LAYER,ROW,COL MAX. CHANGE LAYER,ROW,COL MAX. CHANGE LAYER,ROW,COL MAX. CHANGE LAYER,ROW,COL
 ------------------------------------------------------------------------------------------------------------------------------------
   0.1868     (  1,127,180)  0.1709     (  1,128,180)  0.8129E-01 (  1,129,180)  0.3566E-01 (  1,129,183)  0.2344E-01 (  1,128,183)
   0.1033E-01 (  1,128,185)  0.5307E-02 (  1,127,185)  0.2462E-02 (  1,126,185)  0.9645E-03 (  1,124,186)  0.5046E-03 (  1,128,185)
   0.2242E-03 (  1,128,184)  0.1267E-03 (  1,129,184)  0.7826E-04 (  1,130,184)
     1 CALLS TO GCG PACKAGE FOR TRANSPORT TIME STEP   2 IN FLOW TIME STEP   7 STRESS PERIOD   3
    13 TOTAL ITERATIONS
  MAXIMUM CONCENTRATION CHANGES FOR EACH ITERATION:
  MAX. CHANGE LAYER,ROW,COL MAX. CHANGE LAYER,ROW,COL MAX. CHANGE LAYER,ROW,COL MAX. CHANGE LAYER,ROW,COL MAX. CHANGE LAYER,ROW,COL
 ------------------------------------------------------------------------------------------------------------------------------------
   0.1872     (  1,127,180)  0.1715     (  1,128,180)  0.8130E-01 (  1,129,180)  0.3583E-01 (  1,129,183)  0.2337E-01 (  1,128,183)
   0.1021E-01 (  1,128,185)  0.5295E-02 (  1,127,185)  0.2462E-02 (  1,126,185)  0.9784E-03 (  1,128,186)  0.5106E-03 (  1,128,185)
   0.2248E-03 (  1,128,180)  0.1249E-03 (  1,129,184)  0.7755E-04 (  1,130,184)
     1 CALLS TO GCG PACKAGE FOR TRANSPORT TIME STEP   2 IN FLOW TIME STEP   7 STRESS PERIOD   3
    12 TOTAL ITERATIONS
  MAXIMUM CONCENTRATION CHANGES FOR EACH ITERATION:
  MAX. CHANGE LAYER,ROW,COL MAX. CHANGE LAYER,ROW,COL MAX. CHANGE LAYER,ROW,COL MAX. CHANGE LAYER,ROW,COL MAX. CHANGE LAYER,ROW,COL
 ------------------------------------------------------------------------------------------------------------------------------------
   0.8435E-01 (  1, 79, 91)  0.2679E-01 (  1, 39, 89)  0.2350E-01 (  1, 79, 92)  0.1182E-01 (  1, 41, 89)  0.6118E-02 (  1, 40, 89)
   0.3337E-02 (  1, 78, 92)  0.1432E-02 (  1, 40, 89)  0.8558E-03 (  1, 78, 92)  0.4191E-03 (  1, 40,114)  0.1953E-03 (  1, 41,114)
   0.1334E-03 (  1, 41,113)  0.6157E-04 (  1, 40,115)
     1 CALLS TO GCG PACKAGE FOR TRANSPORT TIME STEP   2 IN FLOW TIME STEP   7 STRESS PERIOD   3
    13 TOTAL ITERATIONS
  MAXIMUM CONCENTRATION CHANGES FOR EACH ITERATION:
  MAX. CHANGE LAYER,ROW,COL MAX. CHANGE LAYER,ROW,COL MAX. CHANGE LAYER,ROW,COL MAX. CHANGE LAYER,ROW,COL MAX. CHANGE LAYER,ROW,COL
 ------------------------------------------------------------------------------------------------------------------------------------
   0.1826     (  1,127,180)  0.1660     (  1,128,180)  0.7942E-01 (  1,129,180)  0.3537E-01 (  1,129,183)  0.2440E-01 (  1,128,183)
   0.1080E-01 (  1,128,182)  0.5244E-02 (  1,127,185)  0.2500E-02 (  1,126,185)  0.9629E-03 (  1,125,184)  0.5718E-03 (  1,127,179)
   0.2474E-03 (  1,128,180)  0.1262E-03 (  1,127,180)  0.7188E-04 (  1,130,184)



 >>>>>>>>>>>>>>>>>>>>>>>>>>>>>>>>>>>>>>>>>>>>>>>>>>>>>>>FOR COMPONENT NO. 01<<<<<<<<<<<<<<<<<<<<<<<<<<<<<<<<<<<<<<<<<<<<<<<<<<<<<<<


                                            -------------------------------------------
                                                      TRANSPORT STEP NO.    2
                                            -------------------------------------------

 TOTAL ELAPSED TIME SINCE BEGINNING OF SIMULATION =   7300.000       d
 .....................................................................

                     CUMMULATIVE MASS BUDGETS AT END OF TRANSPORT STEP    2, TIME STEP    7, STRESS PERIOD    3
                     ------------------------------------------------------------------------------------------

                                                             IN                           OUT
                                                      ----------------             ----------------
                               CONSTANT CONCENTRATION:    0.000000                    0.000000    
                                        CONSTANT HEAD:    0.000000                  -0.9750458    
                                             RECHARGE:   0.8718824E+08                0.000000    
                                   EVAPOTRANSPIRATION:    0.000000                    449.8907    
                                MASS STORAGE (SOLUTE):    107615.4                  -0.8728491E+08
                            ---------------------------------------------------------------------------
                                              [TOTAL]:   0.8729586E+08   mg         -0.8728446E+08   mg

                                                          NET (IN - OUT):    11392.00    
                                                   DISCREPANCY (PERCENT):   0.1305073E-01



 >>>>>>>>>>>>>>>>>>>>>>>>>>>>>>>>>>>>>>>>>>>>>>>>>>>>>>>FOR COMPONENT NO. 02<<<<<<<<<<<<<<<<<<<<<<<<<<<<<<<<<<<<<<<<<<<<<<<<<<<<<<<


                                            -------------------------------------------
                                                      TRANSPORT STEP NO.    2
                                            -------------------------------------------

 TOTAL ELAPSED TIME SINCE BEGINNING OF SIMULATION =   7300.000       d
 .....................................................................

                     CUMMULATIVE MASS BUDGETS AT END OF TRANSPORT STEP    2, TIME STEP    7, STRESS PERIOD    3
                     ------------------------------------------------------------------------------------------

                                                             IN                           OUT
                                                      ----------------             ----------------
                               CONSTANT CONCENTRATION:    0.000000                    0.000000    
                                        CONSTANT HEAD:    0.000000                  -0.9749933E-01
                                             RECHARGE:    8497419.                    0.000000    
                                   EVAPOTRANSPIRATION:    0.000000                    44.01124    
                                MASS STORAGE (SOLUTE):    9729.133                   -8506103.    
                            ---------------------------------------------------------------------------
                                              [TOTAL]:    8507148.       mg          -8506059.       mg

                                                          NET (IN - OUT):    1089.000    
                                                   DISCREPANCY (PERCENT):   0.1280182E-01



 >>>>>>>>>>>>>>>>>>>>>>>>>>>>>>>>>>>>>>>>>>>>>>>>>>>>>>>FOR COMPONENT NO. 03<<<<<<<<<<<<<<<<<<<<<<<<<<<<<<<<<<<<<<<<<<<<<<<<<<<<<<<


                                            -------------------------------------------
                                                      TRANSPORT STEP NO.    2
                                            -------------------------------------------

 TOTAL ELAPSED TIME SINCE BEGINNING OF SIMULATION =   7300.000       d
 .....................................................................

                     CUMMULATIVE MASS BUDGETS AT END OF TRANSPORT STEP    2, TIME STEP    7, STRESS PERIOD    3
                     ------------------------------------------------------------------------------------------

                                                             IN                           OUT
                                                      ----------------             ----------------
                               CONSTANT CONCENTRATION:    0.000000                    0.000000    
                                        CONSTANT HEAD:    0.000000                  -0.4874901E-02
                                             RECHARGE:    311129.7                    0.000000    
                                   EVAPOTRANSPIRATION:    0.000000                    1.367931    
                                MASS STORAGE (SOLUTE):    51.24248                   -311161.1    
                            ---------------------------------------------------------------------------
                                              [TOTAL]:    311180.9       mg          -311159.7       mg

                                                          NET (IN - OUT):    21.21875    
                                                   DISCREPANCY (PERCENT):   0.6819015E-02



 >>>>>>>>>>>>>>>>>>>>>>>>>>>>>>>>>>>>>>>>>>>>>>>>>>>>>>>FOR COMPONENT NO. 04<<<<<<<<<<<<<<<<<<<<<<<<<<<<<<<<<<<<<<<<<<<<<<<<<<<<<<<


                                            -------------------------------------------
                                                      TRANSPORT STEP NO.    2
                                            -------------------------------------------

 TOTAL ELAPSED TIME SINCE BEGINNING OF SIMULATION =   7300.000       d
 .....................................................................

                     CUMMULATIVE MASS BUDGETS AT END OF TRANSPORT STEP    2, TIME STEP    7, STRESS PERIOD    3
                     ------------------------------------------------------------------------------------------

                                                             IN                           OUT
                                                      ----------------             ----------------
                               CONSTANT CONCENTRATION:    0.000000                    0.000000    
                                        CONSTANT HEAD:    0.000000                  -0.1107500E-15
                                             RECHARGE:    56838.80                    0.000000    
                                   EVAPOTRANSPIRATION:    0.000000                   0.8299947    
                                MASS STORAGE (SOLUTE):    205.1524                   -57047.04    
                            ---------------------------------------------------------------------------
                                              [TOTAL]:    57043.95       mg          -57046.21       mg

                                                          NET (IN - OUT):   -2.265625    
                                                   DISCREPANCY (PERCENT):  -0.3971640E-02


                                          ================================================
                                                         TIME STEP NO.  008
                                          ================================================

 FROM TIME =   7300.0     TO    8200.0    



     1 CALLS TO GCG PACKAGE FOR TRANSPORT TIME STEP   1 IN FLOW TIME STEP   8 STRESS PERIOD   3
    16 TOTAL ITERATIONS


     1 CALLS TO GCG PACKAGE FOR TRANSPORT TIME STEP   1 IN FLOW TIME STEP   8 STRESS PERIOD   3
    16 TOTAL ITERATIONS


     1 CALLS TO GCG PACKAGE FOR TRANSPORT TIME STEP   1 IN FLOW TIME STEP   8 STRESS PERIOD   3
    15 TOTAL ITERATIONS


     1 CALLS TO GCG PACKAGE FOR TRANSPORT TIME STEP   1 IN FLOW TIME STEP   8 STRESS PERIOD   3
    16 TOTAL ITERATIONS



 >>>>>>>>>>>>>>>>>>>>>>>>>>>>>>>>>>>>>>>>>>>>>>>>>>>>>>>FOR COMPONENT NO. 01<<<<<<<<<<<<<<<<<<<<<<<<<<<<<<<<<<<<<<<<<<<<<<<<<<<<<<<


                                            -------------------------------------------
                                                      TRANSPORT STEP NO.    1
                                            -------------------------------------------

 TOTAL ELAPSED TIME SINCE BEGINNING OF SIMULATION =   7861.084       d
 .....................................................................

                     CUMMULATIVE MASS BUDGETS AT END OF TRANSPORT STEP    1, TIME STEP    8, STRESS PERIOD    3
                     ------------------------------------------------------------------------------------------

                                                             IN                           OUT
                                                      ----------------             ----------------
                               CONSTANT CONCENTRATION:    0.000000                    0.000000    
                                        CONSTANT HEAD:    0.000000                   -2.198115    
                                             RECHARGE:   0.9388959E+08                0.000000    
                                   EVAPOTRANSPIRATION:    0.000000                    523.7750    
                                MASS STORAGE (SOLUTE):    109005.9                  -0.9398600E+08
                            ---------------------------------------------------------------------------
                                              [TOTAL]:   0.9399860E+08   mg         -0.9398548E+08   mg

                                                          NET (IN - OUT):    13120.00    
                                                   DISCREPANCY (PERCENT):   0.1395863E-01



 >>>>>>>>>>>>>>>>>>>>>>>>>>>>>>>>>>>>>>>>>>>>>>>>>>>>>>>FOR COMPONENT NO. 02<<<<<<<<<<<<<<<<<<<<<<<<<<<<<<<<<<<<<<<<<<<<<<<<<<<<<<<


                                            -------------------------------------------
                                                      TRANSPORT STEP NO.    1
                                            -------------------------------------------

 TOTAL ELAPSED TIME SINCE BEGINNING OF SIMULATION =   7861.084       d
 .....................................................................

                     CUMMULATIVE MASS BUDGETS AT END OF TRANSPORT STEP    1, TIME STEP    8, STRESS PERIOD    3
                     ------------------------------------------------------------------------------------------

                                                             IN                           OUT
                                                      ----------------             ----------------
                               CONSTANT CONCENTRATION:    0.000000                    0.000000    
                                        CONSTANT HEAD:    0.000000                  -0.2198107    
                                             RECHARGE:    9150537.                    0.000000    
                                   EVAPOTRANSPIRATION:    0.000000                    50.80953    
                                MASS STORAGE (SOLUTE):    9850.590                   -9159171.    
                            ---------------------------------------------------------------------------
                                              [TOTAL]:    9160388.       mg          -9159120.       mg

                                                          NET (IN - OUT):    1268.000    
                                                   DISCREPANCY (PERCENT):   0.1384317E-01



 >>>>>>>>>>>>>>>>>>>>>>>>>>>>>>>>>>>>>>>>>>>>>>>>>>>>>>>FOR COMPONENT NO. 03<<<<<<<<<<<<<<<<<<<<<<<<<<<<<<<<<<<<<<<<<<<<<<<<<<<<<<<


                                            -------------------------------------------
                                                      TRANSPORT STEP NO.    1
                                            -------------------------------------------

 TOTAL ELAPSED TIME SINCE BEGINNING OF SIMULATION =   7861.084       d
 .....................................................................

                     CUMMULATIVE MASS BUDGETS AT END OF TRANSPORT STEP    1, TIME STEP    8, STRESS PERIOD    3
                     ------------------------------------------------------------------------------------------

                                                             IN                           OUT
                                                      ----------------             ----------------
                               CONSTANT CONCENTRATION:    0.000000                    0.000000    
                                        CONSTANT HEAD:    0.000000                  -0.1099322E-01
                                             RECHARGE:    335043.3                    0.000000    
                                   EVAPOTRANSPIRATION:    0.000000                    1.564640    
                                MASS STORAGE (SOLUTE):    51.66021                   -335071.9    
                            ---------------------------------------------------------------------------
                                              [TOTAL]:    335095.0       mg          -335070.4       mg

                                                          NET (IN - OUT):    24.59375    
                                                   DISCREPANCY (PERCENT):   0.7339606E-02



 >>>>>>>>>>>>>>>>>>>>>>>>>>>>>>>>>>>>>>>>>>>>>>>>>>>>>>>FOR COMPONENT NO. 04<<<<<<<<<<<<<<<<<<<<<<<<<<<<<<<<<<<<<<<<<<<<<<<<<<<<<<<


                                            -------------------------------------------
                                                      TRANSPORT STEP NO.    1
                                            -------------------------------------------

 TOTAL ELAPSED TIME SINCE BEGINNING OF SIMULATION =   7861.084       d
 .....................................................................

                     CUMMULATIVE MASS BUDGETS AT END OF TRANSPORT STEP    1, TIME STEP    8, STRESS PERIOD    3
                     ------------------------------------------------------------------------------------------

                                                             IN                           OUT
                                                      ----------------             ----------------
                               CONSTANT CONCENTRATION:    0.000000                    0.000000    
                                        CONSTANT HEAD:    0.000000                  -0.5948537E-15
                                             RECHARGE:    61207.47                    0.000000    
                                   EVAPOTRANSPIRATION:    0.000000                   0.9988921    
                                MASS STORAGE (SOLUTE):    207.7240                   -61418.55    
                            ---------------------------------------------------------------------------
                                              [TOTAL]:    61415.20       mg          -61417.55       mg

                                                          NET (IN - OUT):   -2.351562    
                                                   DISCREPANCY (PERCENT):  -0.3828885E-02
     1 CALLS TO GCG PACKAGE FOR TRANSPORT TIME STEP   2 IN FLOW TIME STEP   8 STRESS PERIOD   3
    13 TOTAL ITERATIONS
  MAXIMUM CONCENTRATION CHANGES FOR EACH ITERATION:
  MAX. CHANGE LAYER,ROW,COL MAX. CHANGE LAYER,ROW,COL MAX. CHANGE LAYER,ROW,COL MAX. CHANGE LAYER,ROW,COL MAX. CHANGE LAYER,ROW,COL
 ------------------------------------------------------------------------------------------------------------------------------------
   0.1890     (  1,127,180)  0.1709     (  1,128,180)  0.8142E-01 (  1,129,180)  0.3520E-01 (  1,129,183)  0.2328E-01 (  1,128,183)
   0.1027E-01 (  1,128,185)  0.5271E-02 (  1,127,185)  0.2452E-02 (  1,126,185)  0.9525E-03 (  1,124,186)  0.4944E-03 (  1,127,179)
   0.2235E-03 (  1,128,180)  0.1246E-03 (  1,129,184)  0.7725E-04 (  1,130,184)
     1 CALLS TO GCG PACKAGE FOR TRANSPORT TIME STEP   2 IN FLOW TIME STEP   8 STRESS PERIOD   3
    13 TOTAL ITERATIONS
  MAXIMUM CONCENTRATION CHANGES FOR EACH ITERATION:
  MAX. CHANGE LAYER,ROW,COL MAX. CHANGE LAYER,ROW,COL MAX. CHANGE LAYER,ROW,COL MAX. CHANGE LAYER,ROW,COL MAX. CHANGE LAYER,ROW,COL
 ------------------------------------------------------------------------------------------------------------------------------------
   0.1894     (  1,127,180)  0.1715     (  1,128,180)  0.8142E-01 (  1,129,180)  0.3537E-01 (  1,129,183)  0.2323E-01 (  1,128,183)
   0.1016E-01 (  1,128,185)  0.5260E-02 (  1,127,185)  0.2452E-02 (  1,126,185)  0.9618E-03 (  1,128,186)  0.4977E-03 (  1,128,185)
   0.2245E-03 (  1,128,180)  0.1228E-03 (  1,129,184)  0.7653E-04 (  1,130,184)
     1 CALLS TO GCG PACKAGE FOR TRANSPORT TIME STEP   2 IN FLOW TIME STEP   8 STRESS PERIOD   3
    12 TOTAL ITERATIONS
  MAXIMUM CONCENTRATION CHANGES FOR EACH ITERATION:
  MAX. CHANGE LAYER,ROW,COL MAX. CHANGE LAYER,ROW,COL MAX. CHANGE LAYER,ROW,COL MAX. CHANGE LAYER,ROW,COL MAX. CHANGE LAYER,ROW,COL
 ------------------------------------------------------------------------------------------------------------------------------------
   0.7729E-01 (  1, 79, 91)  0.2526E-01 (  1, 39, 89)  0.2149E-01 (  1, 79, 92)  0.1102E-01 (  1, 41, 89)  0.5748E-02 (  1, 40, 89)
   0.3114E-02 (  1, 78, 92)  0.1345E-02 (  1, 40, 89)  0.7631E-03 (  1, 78, 92)  0.3828E-03 (  1, 40,114)  0.1788E-03 (  1, 40, 91)
   0.1230E-03 (  1, 41,113)  0.5579E-04 (  1, 40,115)
     1 CALLS TO GCG PACKAGE FOR TRANSPORT TIME STEP   2 IN FLOW TIME STEP   8 STRESS PERIOD   3
    13 TOTAL ITERATIONS
  MAXIMUM CONCENTRATION CHANGES FOR EACH ITERATION:
  MAX. CHANGE LAYER,ROW,COL MAX. CHANGE LAYER,ROW,COL MAX. CHANGE LAYER,ROW,COL MAX. CHANGE LAYER,ROW,COL MAX. CHANGE LAYER,ROW,COL
 ------------------------------------------------------------------------------------------------------------------------------------
   0.1851     (  1,127,180)  0.1664     (  1,128,180)  0.7964E-01 (  1,129,180)  0.3495E-01 (  1,129,183)  0.2415E-01 (  1,128,183)
   0.1080E-01 (  1,128,182)  0.5216E-02 (  1,127,185)  0.2488E-02 (  1,126,185)  0.9543E-03 (  1,125,184)  0.5640E-03 (  1,127,179)
   0.2460E-03 (  1,128,180)  0.1259E-03 (  1,127,180)  0.7105E-04 (  1,130,184)



 >>>>>>>>>>>>>>>>>>>>>>>>>>>>>>>>>>>>>>>>>>>>>>>>>>>>>>>FOR COMPONENT NO. 01<<<<<<<<<<<<<<<<<<<<<<<<<<<<<<<<<<<<<<<<<<<<<<<<<<<<<<<


                                            -------------------------------------------
                                                      TRANSPORT STEP NO.    2
                                            -------------------------------------------

 TOTAL ELAPSED TIME SINCE BEGINNING OF SIMULATION =   8200.000       d
 .....................................................................

                     CUMMULATIVE MASS BUDGETS AT END OF TRANSPORT STEP    2, TIME STEP    8, STRESS PERIOD    3
                     ------------------------------------------------------------------------------------------

                                                             IN                           OUT
                                                      ----------------             ----------------
                               CONSTANT CONCENTRATION:    0.000000                    0.000000    
                                        CONSTANT HEAD:    0.000000                   -3.317982    
                                             RECHARGE:   0.9793747E+08                0.000000    
                                   EVAPOTRANSPIRATION:    0.000000                    575.2764    
                                MASS STORAGE (SOLUTE):    145673.5                  -0.9807014E+08
                            ---------------------------------------------------------------------------
                                              [TOTAL]:   0.9808314E+08   mg         -0.9806957E+08   mg

                                                          NET (IN - OUT):    13576.00    
                                                   DISCREPANCY (PERCENT):   0.1384228E-01



 >>>>>>>>>>>>>>>>>>>>>>>>>>>>>>>>>>>>>>>>>>>>>>>>>>>>>>>FOR COMPONENT NO. 02<<<<<<<<<<<<<<<<<<<<<<<<<<<<<<<<<<<<<<<<<<<<<<<<<<<<<<<


                                            -------------------------------------------
                                                      TRANSPORT STEP NO.    2
                                            -------------------------------------------

 TOTAL ELAPSED TIME SINCE BEGINNING OF SIMULATION =   8200.000       d
 .....................................................................

                     CUMMULATIVE MASS BUDGETS AT END OF TRANSPORT STEP    2, TIME STEP    8, STRESS PERIOD    3
                     ------------------------------------------------------------------------------------------

                                                             IN                           OUT
                                                      ----------------             ----------------
                               CONSTANT CONCENTRATION:    0.000000                    0.000000    
                                        CONSTANT HEAD:    0.000000                  -0.3318030    
                                             RECHARGE:    9545046.                    0.000000    
                                   EVAPOTRANSPIRATION:    0.000000                    55.54237    
                                MASS STORAGE (SOLUTE):    13140.77                   -9556927.    
                            ---------------------------------------------------------------------------
                                              [TOTAL]:    9558187.       mg          -9556872.       mg

                                                          NET (IN - OUT):    1315.000    
                                                   DISCREPANCY (PERCENT):   0.1375879E-01



 >>>>>>>>>>>>>>>>>>>>>>>>>>>>>>>>>>>>>>>>>>>>>>>>>>>>>>>FOR COMPONENT NO. 03<<<<<<<<<<<<<<<<<<<<<<<<<<<<<<<<<<<<<<<<<<<<<<<<<<<<<<<


                                            -------------------------------------------
                                                      TRANSPORT STEP NO.    2
                                            -------------------------------------------

 TOTAL ELAPSED TIME SINCE BEGINNING OF SIMULATION =   8200.000       d
 .....................................................................

                     CUMMULATIVE MASS BUDGETS AT END OF TRANSPORT STEP    2, TIME STEP    8, STRESS PERIOD    3
                     ------------------------------------------------------------------------------------------

                                                             IN                           OUT
                                                      ----------------             ----------------
                               CONSTANT CONCENTRATION:    0.000000                    0.000000    
                                        CONSTANT HEAD:    0.000000                  -0.1659588E-01
                                             RECHARGE:    349488.1                    0.000000    
                                   EVAPOTRANSPIRATION:    0.000000                    1.698162    
                                MASS STORAGE (SOLUTE):    52.31581                   -349516.0    
                            ---------------------------------------------------------------------------
                                              [TOTAL]:    349540.4       mg          -349514.3       mg

                                                          NET (IN - OUT):    26.09375    
                                                   DISCREPANCY (PERCENT):   0.7465438E-02



 >>>>>>>>>>>>>>>>>>>>>>>>>>>>>>>>>>>>>>>>>>>>>>>>>>>>>>>FOR COMPONENT NO. 04<<<<<<<<<<<<<<<<<<<<<<<<<<<<<<<<<<<<<<<<<<<<<<<<<<<<<<<


                                            -------------------------------------------
                                                      TRANSPORT STEP NO.    2
                                            -------------------------------------------

 TOTAL ELAPSED TIME SINCE BEGINNING OF SIMULATION =   8200.000       d
 .....................................................................

                     CUMMULATIVE MASS BUDGETS AT END OF TRANSPORT STEP    2, TIME STEP    8, STRESS PERIOD    3
                     ------------------------------------------------------------------------------------------

                                                             IN                           OUT
                                                      ----------------             ----------------
                               CONSTANT CONCENTRATION:    0.000000                    0.000000    
                                        CONSTANT HEAD:    0.000000                  -0.1225847E-14
                                             RECHARGE:    63846.32                    0.000000    
                                   EVAPOTRANSPIRATION:    0.000000                    1.114002    
                                MASS STORAGE (SOLUTE):    285.5143                   -64135.49    
                            ---------------------------------------------------------------------------
                                              [TOTAL]:    64131.84       mg          -64134.38       mg

                                                          NET (IN - OUT):   -2.539062    
                                                   DISCREPANCY (PERCENT):  -0.3959051E-02


                                          ================================================
                                                         TIME STEP NO.  009
                                          ================================================

 FROM TIME =   8200.0     TO    9100.0    



     1 CALLS TO GCG PACKAGE FOR TRANSPORT TIME STEP   1 IN FLOW TIME STEP   9 STRESS PERIOD   3
    16 TOTAL ITERATIONS


     1 CALLS TO GCG PACKAGE FOR TRANSPORT TIME STEP   1 IN FLOW TIME STEP   9 STRESS PERIOD   3
    16 TOTAL ITERATIONS


     1 CALLS TO GCG PACKAGE FOR TRANSPORT TIME STEP   1 IN FLOW TIME STEP   9 STRESS PERIOD   3
    15 TOTAL ITERATIONS


     1 CALLS TO GCG PACKAGE FOR TRANSPORT TIME STEP   1 IN FLOW TIME STEP   9 STRESS PERIOD   3
    16 TOTAL ITERATIONS



 >>>>>>>>>>>>>>>>>>>>>>>>>>>>>>>>>>>>>>>>>>>>>>>>>>>>>>>FOR COMPONENT NO. 01<<<<<<<<<<<<<<<<<<<<<<<<<<<<<<<<<<<<<<<<<<<<<<<<<<<<<<<


                                            -------------------------------------------
                                                      TRANSPORT STEP NO.    1
                                            -------------------------------------------

 TOTAL ELAPSED TIME SINCE BEGINNING OF SIMULATION =   8761.084       d
 .....................................................................

                     CUMMULATIVE MASS BUDGETS AT END OF TRANSPORT STEP    1, TIME STEP    9, STRESS PERIOD    3
                     ------------------------------------------------------------------------------------------

                                                             IN                           OUT
                                                      ----------------             ----------------
                               CONSTANT CONCENTRATION:    0.000000                    0.000000    
                                        CONSTANT HEAD:    0.000000                   -6.773181    
                                             RECHARGE:   0.1046388E+09                0.000000    
                                   EVAPOTRANSPIRATION:    0.000000                    662.8547    
                                MASS STORAGE (SOLUTE):    147774.9                  -0.1047719E+09
                            ---------------------------------------------------------------------------
                                              [TOTAL]:   0.1047866E+09   mg         -0.1047712E+09   mg

                                                          NET (IN - OUT):    15400.00    
                                                   DISCREPANCY (PERCENT):   0.1469762E-01



 >>>>>>>>>>>>>>>>>>>>>>>>>>>>>>>>>>>>>>>>>>>>>>>>>>>>>>>FOR COMPONENT NO. 02<<<<<<<<<<<<<<<<<<<<<<<<<<<<<<<<<<<<<<<<<<<<<<<<<<<<<<<


                                            -------------------------------------------
                                                      TRANSPORT STEP NO.    1
                                            -------------------------------------------

 TOTAL ELAPSED TIME SINCE BEGINNING OF SIMULATION =   8761.084       d
 .....................................................................

                     CUMMULATIVE MASS BUDGETS AT END OF TRANSPORT STEP    1, TIME STEP    9, STRESS PERIOD    3
                     ------------------------------------------------------------------------------------------

                                                             IN                           OUT
                                                      ----------------             ----------------
                               CONSTANT CONCENTRATION:    0.000000                    0.000000    
                                        CONSTANT HEAD:    0.000000                  -0.6773441    
                                             RECHARGE:   0.1019816E+08                0.000000    
                                   EVAPOTRANSPIRATION:    0.000000                    63.57328    
                                MASS STORAGE (SOLUTE):    13324.66                  -0.1021005E+08
                            ---------------------------------------------------------------------------
                                              [TOTAL]:   0.1021149E+08   mg         -0.1020999E+08   mg

                                                          NET (IN - OUT):    1500.000    
                                                   DISCREPANCY (PERCENT):   0.1469042E-01



 >>>>>>>>>>>>>>>>>>>>>>>>>>>>>>>>>>>>>>>>>>>>>>>>>>>>>>>FOR COMPONENT NO. 03<<<<<<<<<<<<<<<<<<<<<<<<<<<<<<<<<<<<<<<<<<<<<<<<<<<<<<<


                                            -------------------------------------------
                                                      TRANSPORT STEP NO.    1
                                            -------------------------------------------

 TOTAL ELAPSED TIME SINCE BEGINNING OF SIMULATION =   8761.084       d
 .....................................................................

                     CUMMULATIVE MASS BUDGETS AT END OF TRANSPORT STEP    1, TIME STEP    9, STRESS PERIOD    3
                     ------------------------------------------------------------------------------------------

                                                             IN                           OUT
                                                      ----------------             ----------------
                               CONSTANT CONCENTRATION:    0.000000                    0.000000    
                                        CONSTANT HEAD:    0.000000                  -0.3388515E-01
                                             RECHARGE:    373401.8                    0.000000    
                                   EVAPOTRANSPIRATION:    0.000000                    1.929247    
                                MASS STORAGE (SOLUTE):    52.77287                   -373426.7    
                            ---------------------------------------------------------------------------
                                              [TOTAL]:    373454.5       mg          -373424.8       mg

                                                          NET (IN - OUT):    29.75000    
                                                   DISCREPANCY (PERCENT):   0.7966481E-02



 >>>>>>>>>>>>>>>>>>>>>>>>>>>>>>>>>>>>>>>>>>>>>>>>>>>>>>>FOR COMPONENT NO. 04<<<<<<<<<<<<<<<<<<<<<<<<<<<<<<<<<<<<<<<<<<<<<<<<<<<<<<<


                                            -------------------------------------------
                                                      TRANSPORT STEP NO.    1
                                            -------------------------------------------

 TOTAL ELAPSED TIME SINCE BEGINNING OF SIMULATION =   8761.084       d
 .....................................................................

                     CUMMULATIVE MASS BUDGETS AT END OF TRANSPORT STEP    1, TIME STEP    9, STRESS PERIOD    3
                     ------------------------------------------------------------------------------------------

                                                             IN                           OUT
                                                      ----------------             ----------------
                               CONSTANT CONCENTRATION:    0.000000                    0.000000    
                                        CONSTANT HEAD:    0.000000                  -0.5537863E-14
                                             RECHARGE:    68215.00                    0.000000    
                                   EVAPOTRANSPIRATION:    0.000000                    1.307398    
                                MASS STORAGE (SOLUTE):    289.4457                   -68508.33    
                            ---------------------------------------------------------------------------
                                              [TOTAL]:    68504.45       mg          -68507.02       mg

                                                          NET (IN - OUT):   -2.578125    
                                                   DISCREPANCY (PERCENT):  -0.3763371E-02
     1 CALLS TO GCG PACKAGE FOR TRANSPORT TIME STEP   2 IN FLOW TIME STEP   9 STRESS PERIOD   3
    13 TOTAL ITERATIONS
  MAXIMUM CONCENTRATION CHANGES FOR EACH ITERATION:
  MAX. CHANGE LAYER,ROW,COL MAX. CHANGE LAYER,ROW,COL MAX. CHANGE LAYER,ROW,COL MAX. CHANGE LAYER,ROW,COL MAX. CHANGE LAYER,ROW,COL
 ------------------------------------------------------------------------------------------------------------------------------------
   0.1875     (  1,127,180)  0.1698     (  1,128,180)  0.8095E-01 (  1,129,180)  0.3483E-01 (  1,129,183)  0.2314E-01 (  1,128,183)
   0.1023E-01 (  1,128,185)  0.5248E-02 (  1,127,185)  0.2445E-02 (  1,126,185)  0.9435E-03 (  1,124,186)  0.4910E-03 (  1,127,179)
   0.2228E-03 (  1,128,180)  0.1242E-03 (  1,129,184)  0.7671E-04 (  1,130,184)
     1 CALLS TO GCG PACKAGE FOR TRANSPORT TIME STEP   2 IN FLOW TIME STEP   9 STRESS PERIOD   3
    13 TOTAL ITERATIONS
  MAXIMUM CONCENTRATION CHANGES FOR EACH ITERATION:
  MAX. CHANGE LAYER,ROW,COL MAX. CHANGE LAYER,ROW,COL MAX. CHANGE LAYER,ROW,COL MAX. CHANGE LAYER,ROW,COL MAX. CHANGE LAYER,ROW,COL
 ------------------------------------------------------------------------------------------------------------------------------------
   0.1878     (  1,127,180)  0.1703     (  1,128,180)  0.8094E-01 (  1,129,180)  0.3500E-01 (  1,129,183)  0.2309E-01 (  1,128,183)
   0.1012E-01 (  1,128,185)  0.5237E-02 (  1,127,185)  0.2445E-02 (  1,126,185)  0.9505E-03 (  1,128,186)  0.4911E-03 (  1,127,179)
   0.2238E-03 (  1,128,180)  0.1224E-03 (  1,129,184)  0.7594E-04 (  1,130,184)
     1 CALLS TO GCG PACKAGE FOR TRANSPORT TIME STEP   2 IN FLOW TIME STEP   9 STRESS PERIOD   3
    12 TOTAL ITERATIONS
  MAXIMUM CONCENTRATION CHANGES FOR EACH ITERATION:
  MAX. CHANGE LAYER,ROW,COL MAX. CHANGE LAYER,ROW,COL MAX. CHANGE LAYER,ROW,COL MAX. CHANGE LAYER,ROW,COL MAX. CHANGE LAYER,ROW,COL
 ------------------------------------------------------------------------------------------------------------------------------------
   0.7177E-01 (  1, 79, 91)  0.2407E-01 (  1, 39, 89)  0.1988E-01 (  1, 79, 92)  0.1037E-01 (  1, 41, 89)  0.5454E-02 (  1, 40, 89)
   0.2933E-02 (  1, 78, 92)  0.1268E-02 (  1, 40, 89)  0.6914E-03 (  1, 78, 92)  0.3523E-03 (  1, 40,114)  0.1664E-03 (  1, 40, 91)
   0.1144E-03 (  1, 41,113)  0.5162E-04 (  1, 41,114)
     1 CALLS TO GCG PACKAGE FOR TRANSPORT TIME STEP   2 IN FLOW TIME STEP   9 STRESS PERIOD   3
    13 TOTAL ITERATIONS
  MAXIMUM CONCENTRATION CHANGES FOR EACH ITERATION:
  MAX. CHANGE LAYER,ROW,COL MAX. CHANGE LAYER,ROW,COL MAX. CHANGE LAYER,ROW,COL MAX. CHANGE LAYER,ROW,COL MAX. CHANGE LAYER,ROW,COL
 ------------------------------------------------------------------------------------------------------------------------------------
   0.1839     (  1,127,180)  0.1657     (  1,128,180)  0.7928E-01 (  1,129,180)  0.3462E-01 (  1,129,183)  0.2394E-01 (  1,128,183)
   0.1075E-01 (  1,128,182)  0.5198E-02 (  1,127,185)  0.2479E-02 (  1,126,185)  0.9442E-03 (  1,125,184)  0.5556E-03 (  1,127,179)
   0.2443E-03 (  1,128,180)  0.1258E-03 (  1,127,180)  0.7057E-04 (  1,130,184)



 >>>>>>>>>>>>>>>>>>>>>>>>>>>>>>>>>>>>>>>>>>>>>>>>>>>>>>>FOR COMPONENT NO. 01<<<<<<<<<<<<<<<<<<<<<<<<<<<<<<<<<<<<<<<<<<<<<<<<<<<<<<<


                                            -------------------------------------------
                                                      TRANSPORT STEP NO.    2
                                            -------------------------------------------

 TOTAL ELAPSED TIME SINCE BEGINNING OF SIMULATION =   9100.000       d
 .....................................................................

                     CUMMULATIVE MASS BUDGETS AT END OF TRANSPORT STEP    2, TIME STEP    9, STRESS PERIOD    3
                     ------------------------------------------------------------------------------------------

                                                             IN                           OUT
                                                      ----------------             ----------------
                               CONSTANT CONCENTRATION:    0.000000                    0.000000    
                                        CONSTANT HEAD:    0.000000                   -9.783321    
                                             RECHARGE:   0.1086867E+09                0.000000    
                                   EVAPOTRANSPIRATION:    0.000000                    722.2820    
                                MASS STORAGE (SOLUTE):    189450.9                  -0.1088610E+09
                            ---------------------------------------------------------------------------
                                              [TOTAL]:   0.1088762E+09   mg         -0.1088603E+09   mg

                                                          NET (IN - OUT):    15872.00    
                                                   DISCREPANCY (PERCENT):   0.1457909E-01



 >>>>>>>>>>>>>>>>>>>>>>>>>>>>>>>>>>>>>>>>>>>>>>>>>>>>>>>FOR COMPONENT NO. 02<<<<<<<<<<<<<<<<<<<<<<<<<<<<<<<<<<<<<<<<<<<<<<<<<<<<<<<


                                            -------------------------------------------
                                                      TRANSPORT STEP NO.    2
                                            -------------------------------------------

 TOTAL ELAPSED TIME SINCE BEGINNING OF SIMULATION =   9100.000       d
 .....................................................................

                     CUMMULATIVE MASS BUDGETS AT END OF TRANSPORT STEP    2, TIME STEP    9, STRESS PERIOD    3
                     ------------------------------------------------------------------------------------------

                                                             IN                           OUT
                                                      ----------------             ----------------
                               CONSTANT CONCENTRATION:    0.000000                    0.000000    
                                        CONSTANT HEAD:    0.000000                  -0.9783778    
                                             RECHARGE:   0.1059267E+08                0.000000    
                                   EVAPOTRANSPIRATION:    0.000000                    69.01946    
                                MASS STORAGE (SOLUTE):    17071.31                  -0.1060826E+08
                            ---------------------------------------------------------------------------
                                              [TOTAL]:   0.1060974E+08   mg         -0.1060819E+08   mg

                                                          NET (IN - OUT):    1551.000    
                                                   DISCREPANCY (PERCENT):   0.1461971E-01



 >>>>>>>>>>>>>>>>>>>>>>>>>>>>>>>>>>>>>>>>>>>>>>>>>>>>>>>FOR COMPONENT NO. 03<<<<<<<<<<<<<<<<<<<<<<<<<<<<<<<<<<<<<<<<<<<<<<<<<<<<<<<


                                            -------------------------------------------
                                                      TRANSPORT STEP NO.    2
                                            -------------------------------------------

 TOTAL ELAPSED TIME SINCE BEGINNING OF SIMULATION =   9100.000       d
 .....................................................................

                     CUMMULATIVE MASS BUDGETS AT END OF TRANSPORT STEP    2, TIME STEP    9, STRESS PERIOD    3
                     ------------------------------------------------------------------------------------------

                                                             IN                           OUT
                                                      ----------------             ----------------
                               CONSTANT CONCENTRATION:    0.000000                    0.000000    
                                        CONSTANT HEAD:    0.000000                  -0.4894838E-01
                                             RECHARGE:    387846.5                    0.000000    
                                   EVAPOTRANSPIRATION:    0.000000                    2.084057    
                                MASS STORAGE (SOLUTE):    53.45534                   -387870.9    
                            ---------------------------------------------------------------------------
                                              [TOTAL]:    387900.0       mg          -387868.8       mg

                                                          NET (IN - OUT):    31.15625    
                                                   DISCREPANCY (PERCENT):   0.8032354E-02



 >>>>>>>>>>>>>>>>>>>>>>>>>>>>>>>>>>>>>>>>>>>>>>>>>>>>>>>FOR COMPONENT NO. 04<<<<<<<<<<<<<<<<<<<<<<<<<<<<<<<<<<<<<<<<<<<<<<<<<<<<<<<


                                            -------------------------------------------
                                                      TRANSPORT STEP NO.    2
                                            -------------------------------------------

 TOTAL ELAPSED TIME SINCE BEGINNING OF SIMULATION =   9100.000       d
 .....................................................................

                     CUMMULATIVE MASS BUDGETS AT END OF TRANSPORT STEP    2, TIME STEP    9, STRESS PERIOD    3
                     ------------------------------------------------------------------------------------------

                                                             IN                           OUT
                                                      ----------------             ----------------
                               CONSTANT CONCENTRATION:    0.000000                    0.000000    
                                        CONSTANT HEAD:    0.000000                  -0.1084265E-13
                                             RECHARGE:    70853.84                    0.000000    
                                   EVAPOTRANSPIRATION:    0.000000                    1.435996    
                                MASS STORAGE (SOLUTE):    378.6102                   -71236.66    
                            ---------------------------------------------------------------------------
                                              [TOTAL]:    71232.45       mg          -71235.22       mg

                                                          NET (IN - OUT):   -2.765625    
                                                   DISCREPANCY (PERCENT):  -0.3882460E-02


                                          ================================================
                                                         TIME STEP NO.  010
                                          ================================================

 FROM TIME =   9100.0     TO    10000.    



     1 CALLS TO GCG PACKAGE FOR TRANSPORT TIME STEP   1 IN FLOW TIME STEP  10 STRESS PERIOD   3
    16 TOTAL ITERATIONS


     1 CALLS TO GCG PACKAGE FOR TRANSPORT TIME STEP   1 IN FLOW TIME STEP  10 STRESS PERIOD   3
    16 TOTAL ITERATIONS


     1 CALLS TO GCG PACKAGE FOR TRANSPORT TIME STEP   1 IN FLOW TIME STEP  10 STRESS PERIOD   3
    15 TOTAL ITERATIONS


     1 CALLS TO GCG PACKAGE FOR TRANSPORT TIME STEP   1 IN FLOW TIME STEP  10 STRESS PERIOD   3
    16 TOTAL ITERATIONS



 >>>>>>>>>>>>>>>>>>>>>>>>>>>>>>>>>>>>>>>>>>>>>>>>>>>>>>>FOR COMPONENT NO. 01<<<<<<<<<<<<<<<<<<<<<<<<<<<<<<<<<<<<<<<<<<<<<<<<<<<<<<<


                                            -------------------------------------------
                                                      TRANSPORT STEP NO.    1
                                            -------------------------------------------

 TOTAL ELAPSED TIME SINCE BEGINNING OF SIMULATION =   9661.084       d
 .....................................................................

                     CUMMULATIVE MASS BUDGETS AT END OF TRANSPORT STEP    1, TIME STEP   10, STRESS PERIOD    3
                     ------------------------------------------------------------------------------------------

                                                             IN                           OUT
                                                      ----------------             ----------------
                               CONSTANT CONCENTRATION:    0.000000                    0.000000    
                                        CONSTANT HEAD:    0.000000                   -18.41084    
                                             RECHARGE:   0.1153881E+09                0.000000    
                                   EVAPOTRANSPIRATION:    0.000000                    820.8319    
                                MASS STORAGE (SOLUTE):    193477.2                  -0.1155646E+09
                            ---------------------------------------------------------------------------
                                              [TOTAL]:   0.1155815E+09   mg         -0.1155638E+09   mg

                                                          NET (IN - OUT):    17752.00    
                                                   DISCREPANCY (PERCENT):   0.1536004E-01



 >>>>>>>>>>>>>>>>>>>>>>>>>>>>>>>>>>>>>>>>>>>>>>>>>>>>>>>FOR COMPONENT NO. 02<<<<<<<<<<<<<<<<<<<<<<<<<<<<<<<<<<<<<<<<<<<<<<<<<<<<<<<


                                            -------------------------------------------
                                                      TRANSPORT STEP NO.    1
                                            -------------------------------------------

 TOTAL ELAPSED TIME SINCE BEGINNING OF SIMULATION =   9661.084       d
 .....................................................................

                     CUMMULATIVE MASS BUDGETS AT END OF TRANSPORT STEP    1, TIME STEP   10, STRESS PERIOD    3
                     ------------------------------------------------------------------------------------------

                                                             IN                           OUT
                                                      ----------------             ----------------
                               CONSTANT CONCENTRATION:    0.000000                    0.000000    
                                        CONSTANT HEAD:    0.000000                   -1.841186    
                                             RECHARGE:   0.1124579E+08                0.000000    
                                   EVAPOTRANSPIRATION:    0.000000                    78.03481    
                                MASS STORAGE (SOLUTE):    17432.58                  -0.1126156E+08
                            ---------------------------------------------------------------------------
                                              [TOTAL]:   0.1126322E+08   mg         -0.1126148E+08   mg

                                                          NET (IN - OUT):    1744.000    
                                                   DISCREPANCY (PERCENT):   0.1548522E-01



 >>>>>>>>>>>>>>>>>>>>>>>>>>>>>>>>>>>>>>>>>>>>>>>>>>>>>>>FOR COMPONENT NO. 03<<<<<<<<<<<<<<<<<<<<<<<<<<<<<<<<<<<<<<<<<<<<<<<<<<<<<<<


                                            -------------------------------------------
                                                      TRANSPORT STEP NO.    1
                                            -------------------------------------------

 TOTAL ELAPSED TIME SINCE BEGINNING OF SIMULATION =   9661.084       d
 .....................................................................

                     CUMMULATIVE MASS BUDGETS AT END OF TRANSPORT STEP    1, TIME STEP   10, STRESS PERIOD    3
                     ------------------------------------------------------------------------------------------

                                                             IN                           OUT
                                                      ----------------             ----------------
                               CONSTANT CONCENTRATION:    0.000000                    0.000000    
                                        CONSTANT HEAD:    0.000000                  -0.9212656E-01
                                             RECHARGE:    411760.2                    0.000000    
                                   EVAPOTRANSPIRATION:    0.000000                    2.347260    
                                MASS STORAGE (SOLUTE):    53.96370                   -411781.8    
                            ---------------------------------------------------------------------------
                                              [TOTAL]:    411814.2       mg          -411779.5       mg

                                                          NET (IN - OUT):    34.65625    
                                                   DISCREPANCY (PERCENT):   0.8415862E-02



 >>>>>>>>>>>>>>>>>>>>>>>>>>>>>>>>>>>>>>>>>>>>>>>>>>>>>>>FOR COMPONENT NO. 04<<<<<<<<<<<<<<<<<<<<<<<<<<<<<<<<<<<<<<<<<<<<<<<<<<<<<<<


                                            -------------------------------------------
                                                      TRANSPORT STEP NO.    1
                                            -------------------------------------------

 TOTAL ELAPSED TIME SINCE BEGINNING OF SIMULATION =   9661.084       d
 .....................................................................

                     CUMMULATIVE MASS BUDGETS AT END OF TRANSPORT STEP    1, TIME STEP   10, STRESS PERIOD    3
                     ------------------------------------------------------------------------------------------

                                                             IN                           OUT
                                                      ----------------             ----------------
                               CONSTANT CONCENTRATION:    0.000000                    0.000000    
                                        CONSTANT HEAD:    0.000000                  -0.4256721E-13
                                             RECHARGE:    75222.52                    0.000000    
                                   EVAPOTRANSPIRATION:    0.000000                    1.645882    
                                MASS STORAGE (SOLUTE):    387.1311                   -75614.10    
                            ---------------------------------------------------------------------------
                                              [TOTAL]:    75609.65       mg          -75612.45       mg

                                                          NET (IN - OUT):   -2.804688    
                                                   DISCREPANCY (PERCENT):  -0.3709362E-02
     1 CALLS TO GCG PACKAGE FOR TRANSPORT TIME STEP   2 IN FLOW TIME STEP  10 STRESS PERIOD   3
    13 TOTAL ITERATIONS
  MAXIMUM CONCENTRATION CHANGES FOR EACH ITERATION:
  MAX. CHANGE LAYER,ROW,COL MAX. CHANGE LAYER,ROW,COL MAX. CHANGE LAYER,ROW,COL MAX. CHANGE LAYER,ROW,COL MAX. CHANGE LAYER,ROW,COL
 ------------------------------------------------------------------------------------------------------------------------------------
   0.1862     (  1,127,180)  0.1689     (  1,128,180)  0.8057E-01 (  1,129,180)  0.3452E-01 (  1,129,183)  0.2301E-01 (  1,128,183)
   0.1021E-01 (  1,128,185)  0.5231E-02 (  1,127,185)  0.2439E-02 (  1,126,185)  0.9364E-03 (  1,124,186)  0.4885E-03 (  1,127,179)
   0.2221E-03 (  1,128,180)  0.1240E-03 (  1,129,184)  0.7629E-04 (  1,130,184)
     1 CALLS TO GCG PACKAGE FOR TRANSPORT TIME STEP   2 IN FLOW TIME STEP  10 STRESS PERIOD   3
    13 TOTAL ITERATIONS
  MAXIMUM CONCENTRATION CHANGES FOR EACH ITERATION:
  MAX. CHANGE LAYER,ROW,COL MAX. CHANGE LAYER,ROW,COL MAX. CHANGE LAYER,ROW,COL MAX. CHANGE LAYER,ROW,COL MAX. CHANGE LAYER,ROW,COL
 ------------------------------------------------------------------------------------------------------------------------------------
   0.1865     (  1,127,180)  0.1694     (  1,128,180)  0.8055E-01 (  1,129,180)  0.3469E-01 (  1,129,183)  0.2297E-01 (  1,128,183)
   0.1010E-01 (  1,128,185)  0.5220E-02 (  1,127,185)  0.2440E-02 (  1,126,185)  0.9423E-03 (  1,128,186)  0.4888E-03 (  1,127,179)
   0.2230E-03 (  1,128,180)  0.1221E-03 (  1,129,184)  0.7546E-04 (  1,130,184)
     1 CALLS TO GCG PACKAGE FOR TRANSPORT TIME STEP   2 IN FLOW TIME STEP  10 STRESS PERIOD   3
    12 TOTAL ITERATIONS
  MAXIMUM CONCENTRATION CHANGES FOR EACH ITERATION:
  MAX. CHANGE LAYER,ROW,COL MAX. CHANGE LAYER,ROW,COL MAX. CHANGE LAYER,ROW,COL MAX. CHANGE LAYER,ROW,COL MAX. CHANGE LAYER,ROW,COL
 ------------------------------------------------------------------------------------------------------------------------------------
   0.6733E-01 (  1, 79, 91)  0.2312E-01 (  1, 39, 89)  0.1857E-01 (  1, 79, 92)  0.9844E-02 (  1, 41, 89)  0.5225E-02 (  1, 40, 89)
   0.2783E-02 (  1, 78, 92)  0.1208E-02 (  1, 40, 89)  0.6343E-03 (  1, 78, 92)  0.3268E-03 (  1, 40,114)  0.1567E-03 (  1, 40, 91)
   0.1072E-03 (  1, 41,113)  0.4810E-04 (  1, 41,114)
     1 CALLS TO GCG PACKAGE FOR TRANSPORT TIME STEP   2 IN FLOW TIME STEP  10 STRESS PERIOD   3
    13 TOTAL ITERATIONS
  MAXIMUM CONCENTRATION CHANGES FOR EACH ITERATION:
  MAX. CHANGE LAYER,ROW,COL MAX. CHANGE LAYER,ROW,COL MAX. CHANGE LAYER,ROW,COL MAX. CHANGE LAYER,ROW,COL MAX. CHANGE LAYER,ROW,COL
 ------------------------------------------------------------------------------------------------------------------------------------
   0.1828     (  1,127,180)  0.1651     (  1,128,180)  0.7899E-01 (  1,129,180)  0.3434E-01 (  1,129,183)  0.2376E-01 (  1,128,183)
   0.1069E-01 (  1,128,182)  0.5184E-02 (  1,127,185)  0.2472E-02 (  1,126,185)  0.9356E-03 (  1,125,184)  0.5493E-03 (  1,127,179)
   0.2425E-03 (  1,128,180)  0.1254E-03 (  1,127,180)  0.7021E-04 (  1,130,184)



 >>>>>>>>>>>>>>>>>>>>>>>>>>>>>>>>>>>>>>>>>>>>>>>>>>>>>>>FOR COMPONENT NO. 01<<<<<<<<<<<<<<<<<<<<<<<<<<<<<<<<<<<<<<<<<<<<<<<<<<<<<<<


                                            -------------------------------------------
                                                      TRANSPORT STEP NO.    2
                                            -------------------------------------------

 TOTAL ELAPSED TIME SINCE BEGINNING OF SIMULATION =   10000.00       d
 .....................................................................

                     CUMMULATIVE MASS BUDGETS AT END OF TRANSPORT STEP    2, TIME STEP   10, STRESS PERIOD    3
                     ------------------------------------------------------------------------------------------

                                                             IN                           OUT
                                                      ----------------             ----------------
                               CONSTANT CONCENTRATION:    0.000000                    0.000000    
                                        CONSTANT HEAD:    0.000000                   -25.62132    
                                             RECHARGE:   0.1194359E+09                0.000000    
                                   EVAPOTRANSPIRATION:    0.000000                    886.0433    
                                MASS STORAGE (SOLUTE):    239771.9                  -0.1196584E+09
                            ---------------------------------------------------------------------------
                                              [TOTAL]:   0.1196757E+09   mg         -0.1196575E+09   mg

                                                          NET (IN - OUT):    18208.00    
                                                   DISCREPANCY (PERCENT):   0.1521561E-01



 >>>>>>>>>>>>>>>>>>>>>>>>>>>>>>>>>>>>>>>>>>>>>>>>>>>>>>>FOR COMPONENT NO. 02<<<<<<<<<<<<<<<<<<<<<<<<<<<<<<<<<<<<<<<<<<<<<<<<<<<<<<<


                                            -------------------------------------------
                                                      TRANSPORT STEP NO.    2
                                            -------------------------------------------

 TOTAL ELAPSED TIME SINCE BEGINNING OF SIMULATION =   10000.00       d
 .....................................................................

                     CUMMULATIVE MASS BUDGETS AT END OF TRANSPORT STEP    2, TIME STEP   10, STRESS PERIOD    3
                     ------------------------------------------------------------------------------------------

                                                             IN                           OUT
                                                      ----------------             ----------------
                               CONSTANT CONCENTRATION:    0.000000                    0.000000    
                                        CONSTANT HEAD:    0.000000                   -2.562283    
                                             RECHARGE:   0.1164030E+08                0.000000    
                                   EVAPOTRANSPIRATION:    0.000000                    83.99214    
                                MASS STORAGE (SOLUTE):    21601.03                  -0.1166019E+08
                            ---------------------------------------------------------------------------
                                              [TOTAL]:   0.1166190E+08   mg         -0.1166011E+08   mg

                                                          NET (IN - OUT):    1795.000    
                                                   DISCREPANCY (PERCENT):   0.1539319E-01



 >>>>>>>>>>>>>>>>>>>>>>>>>>>>>>>>>>>>>>>>>>>>>>>>>>>>>>>FOR COMPONENT NO. 03<<<<<<<<<<<<<<<<<<<<<<<<<<<<<<<<<<<<<<<<<<<<<<<<<<<<<<<


                                            -------------------------------------------
                                                      TRANSPORT STEP NO.    2
                                            -------------------------------------------

 TOTAL ELAPSED TIME SINCE BEGINNING OF SIMULATION =   10000.00       d
 .....................................................................

                     CUMMULATIVE MASS BUDGETS AT END OF TRANSPORT STEP    2, TIME STEP   10, STRESS PERIOD    3
                     ------------------------------------------------------------------------------------------

                                                             IN                           OUT
                                                      ----------------             ----------------
                               CONSTANT CONCENTRATION:    0.000000                    0.000000    
                                        CONSTANT HEAD:    0.000000                  -0.1282142    
                                             RECHARGE:    426205.0                    0.000000    
                                   EVAPOTRANSPIRATION:    0.000000                    2.521398    
                                MASS STORAGE (SOLUTE):    54.69073                   -426226.1    
                            ---------------------------------------------------------------------------
                                              [TOTAL]:    426259.7       mg          -426223.7       mg

                                                          NET (IN - OUT):    35.93750    
                                                   DISCREPANCY (PERCENT):   0.8431249E-02



 >>>>>>>>>>>>>>>>>>>>>>>>>>>>>>>>>>>>>>>>>>>>>>>>>>>>>>>FOR COMPONENT NO. 04<<<<<<<<<<<<<<<<<<<<<<<<<<<<<<<<<<<<<<<<<<<<<<<<<<<<<<<


                                            -------------------------------------------
                                                      TRANSPORT STEP NO.    2
                                            -------------------------------------------

 TOTAL ELAPSED TIME SINCE BEGINNING OF SIMULATION =   10000.00       d
 .....................................................................

                     CUMMULATIVE MASS BUDGETS AT END OF TRANSPORT STEP    2, TIME STEP   10, STRESS PERIOD    3
                     ------------------------------------------------------------------------------------------

                                                             IN                           OUT
                                                      ----------------             ----------------
                               CONSTANT CONCENTRATION:    0.000000                    0.000000    
                                        CONSTANT HEAD:    0.000000                  -0.7972597E-13
                                             RECHARGE:    77861.36                    0.000000    
                                   EVAPOTRANSPIRATION:    0.000000                    1.781332    
                                MASS STORAGE (SOLUTE):    486.8893                   -78353.02    
                            ---------------------------------------------------------------------------
                                              [TOTAL]:    78348.25       mg          -78351.24       mg

                                                          NET (IN - OUT):   -2.992188    
                                                   DISCREPANCY (PERCENT):  -0.3819013E-02
  ----- 
 | M T |
 | 3 D | END OF MODEL OUTPUT
  ----- 
