
                              +++++++++++++++++++++++++++++++++++++++++++++++++++++++++++++++++++++++
                              +                                                                     +
                              +                               MT3DMS                                +
                              +             A Modular 3D Multi-Species Transport Model              +
                              +    For Simulation of Advection, Dispersion and Chemical Reactions   +
                              +                of Contaminants in Groundwater Systems               +
                              +                                                                     +
                              +++++++++++++++++++++++++++++++++++++++++++++++++++++++++++++++++++++++

  ----- 
 | M T | GMS MT3D Simulation                                                             
 | 3 D | 08 August 2018                                                                  
  ----- 
 THE TRANSPORT MODEL CONSISTS OF     3 LAYER(S)  287 ROW(S)  326 COLUMN(S)
 NUMBER OF STRESS PERIOD(S) FOR TRANSPORT SIMULATION =    3
 NUMBER OF ALL COMPONENTS INCLUDED IN SIMULATION =    3
 NUMBER OF MOBILE COMPONENTS INCLUDED IN SIMULATION =    3
 UNIT FOR TIME IS    d;  UNIT FOR LENGTH IS    m;  UNIT FOR MASS IS   mg
 OPTIONAL PACKAGES INCLUDED IN CURRENT SIMULATION:
  o ADV   ON UNIT  2
  o DSP   ON UNIT  3
  o SSM   ON UNIT  4
  o GCG   ON UNIT  9
  o TOB   ON UNIT 12

 BTN5 -- BASIC TRANSPORT PACKAGE, VERSION 5, FEBRUARY 2010, INPUT READ FROM UNIT  1
    7673310 ELEMENTS OF THE  X ARRAY USED BY THE BTN PACKAGE
     842061 ELEMENTS OF THE IX ARRAY USED BY THE BTN PACKAGE

 FMI5 -- FLOW MODEL INTERFACE PACKAGE, VERSION 5, FEBRUARY 2010, INPUT READ FROM UNIT 10
 FLOW MODEL IS STEADY-STATE
 FLOW MODEL CONTAINS CONSTANT-HEAD CELLS

 ADV5 -- ADVECTION PACKAGE, VERSION 5, FEBRUARY 2010, INPUT READ FROM UNIT  2
 ADVECTION IS SOLVED WITH THE ULTIMATE SCHEME
 COURANT NUMBER ALLOWED IN SOLVING THE ADVECTION TERM =  1.00    
          0 ELEMENTS OF THE  X ARRAY USED BY THE ADV PACKAGE
          0 ELEMENTS OF THE IX ARRAY USED BY THE ADV PACKAGE

 DSP5 -- DISPERSION PACKAGE, VERSION 5, FEBRUARY 2010, INPUT READ FROM UNIT  3
    5333040 ELEMENTS OF THE  X ARRAY USED BY THE DSP PACKAGE
          0 ELEMENTS OF THE IX ARRAY USED BY THE DSP PACKAGE

 SSM5 -- SINK & SOURCE MIXING PACKAGE, VERSION 5, FEBRUARY 2010, INPUT READ FROM UNIT  4
 HEADER LINE OF THE SSM PACKAGE INPUT FILE:
  F F T T F F                                                                                                                                                                                            
 MAJOR STRESS COMPONENTS PRESENT IN THE FLOW MODEL:
  o RECHARGE [RCH]
  o EVAPOTRANSPIRATION [EVT]
 MAXIMUM NUMBER OF POINT SINKS/SOURCES =   10620
     907796 ELEMENTS OF THE  X ARRAY USED BY THE SSM PACKAGE
     187124 ELEMENTS OF THE IX ARRAY BY THE SSM PACKAGE

 GCG5 -- GENERALIZED CONJUGATE GRADIENT SOLVER PACKAGE, VERSION 5, FEBRUARY 2010 INPUT READ FROM UNIT  9
 MAXIMUM OF    1 OUTER ITERATIONS
        AND   50 INNER ITERATIONS ALLOWED FOR CLOSURE
 THE PRECONDITIONING TYPE SELECTED IS JACOBI.
 DISPERSION CROSS TERMS LUMPED INTO RIGHT-HAND-SIDE
    4210340 ELEMENTS OF THE  X ARRAY USED BY THE GCG PACKAGE
        150 ELEMENTS OF THE IX ARRAY USED BY THE GCG PACKAGE

 TOB5 -- TRANSPORT OBSERVATION PACKAGE, VERSION 5, FEBRUARY 2010, INPUT READ FROM UNIT 12
# TOBS package input file (GMS - 6.0)                                                                                                                                                                   
 MAXIMUM NUMBER OF CONC OBSERVATION WELLS =      0
 MAXIMUM NUMBER OF MASS-FLUX OBSERVATIONS =      0
 MAXIMUM NUMBER OF CELLS IN A FLUX OBJECT =      0
         27 ELEMENTS OF THE  X ARRAY USED BY THE TOB PACKAGE
          3 ELEMENTS OF THE IX ARRAY USED BY THE TOB PACKAGE

 ..........................................
 ELEMENTS OF THE  X ARRAY USED =  18124514
 ELEMENTS OF THE IX ARRAY USED =   1029339
 ..........................................

 LAYER NUMBER  AQUIFER TYPE
 ------------  ------------
       1            1
       2            0
       3            0

                           WIDTH ALONG ROWS (DELR)  READ ON UNIT  1 USING FORMAT: "           (10G15.6)"
                           -----------------------------------------------------------------------------

            1           2           3           4           5           6           7           8           9          10
           11          12          13          14          15          16          17          18          19          20
           21          22          23          24          25          26          27          28          29          30
           31          32          33          34          35          36          37          38          39          40
           41          42          43          44          45          46          47          48          49          50
           51          52          53          54          55          56          57          58          59          60
           61          62          63          64          65          66          67          68          69          70
           71          72          73          74          75          76          77          78          79          80
           81          82          83          84          85          86          87          88          89          90
           91          92          93          94          95          96          97          98          99         100
          101         102         103         104         105         106         107         108         109         110
          111         112         113         114         115         116         117         118         119         120
          121         122         123         124         125         126         127         128         129         130
          131         132         133         134         135         136         137         138         139         140
          141         142         143         144         145         146         147         148         149         150
          151         152         153         154         155         156         157         158         159         160
          161         162         163         164         165         166         167         168         169         170
          171         172         173         174         175         176         177         178         179         180
          181         182         183         184         185         186         187         188         189         190
          191         192         193         194         195         196         197         198         199         200
          201         202         203         204         205         206         207         208         209         210
          211         212         213         214         215         216         217         218         219         220
          221         222         223         224         225         226         227         228         229         230
          231         232         233         234         235         236         237         238         239         240
          241         242         243         244         245         246         247         248         249         250
          251         252         253         254         255         256         257         258         259         260
          261         262         263         264         265         266         267         268         269         270
          271         272         273         274         275         276         277         278         279         280
          281         282         283         284         285         286         287         288         289         290
          291         292         293         294         295         296         297         298         299         300
          301         302         303         304         305         306         307         308         309         310
          311         312         313         314         315         316         317         318         319         320
          321         322         323         324         325         326
 .............................................................................................................................
   1    18.50       18.50       18.50       18.50       18.50       18.50       18.50       17.97       17.11       16.30    
        15.52       14.78       14.08       13.41       12.77       12.16       11.58       11.03       10.51       10.01    
        9.530       9.076       8.644       8.232       7.840       7.467       7.111       6.773       6.450       6.143    
        5.851       5.572       5.307       5.054       4.813       4.584       4.366       4.158       3.960       3.771    
        3.592       3.421       3.258       3.103       2.955       2.814       2.680       2.553       2.431       2.315    
        2.205       2.100       2.000       2.100       2.205       2.315       2.431       2.553       2.680       2.814    
        2.955       3.103       3.258       3.421       3.592       3.771       3.960       4.158       4.366       4.584    
        4.813       5.054       5.307       5.572       5.851       6.143       6.450       6.773       7.111       7.467    
        7.840       8.232       8.537       8.537       8.537       8.537       8.537       8.537       8.537       8.537    
        8.537       8.537       8.537       8.537       8.232       7.840       7.467       7.111       6.773       6.450    
        6.143       5.851       5.572       5.307       5.054       4.813       4.584       4.366       4.158       3.960    
        3.771       3.592       3.421       3.258       3.103       2.955       2.814       2.680       2.553       2.431    
        2.315       2.205       2.100       2.000       2.100       2.205       2.315       2.431       2.553       2.680    
        2.814       2.955       3.103       3.258       3.421       3.592       3.771       3.960       4.158       4.366    
        4.584       4.813       5.054       5.307       5.572       5.851       6.143       6.450       6.773       7.111    
        7.467       7.840       8.232       8.644       9.076       9.530       10.01       10.51       11.03       11.58    
        12.16       12.77       13.41       14.08       14.78       15.52       16.30       17.11       17.97       18.87    
        19.81       20.80       21.84       22.93       24.08       25.29       26.55       27.88       29.27       30.73    
        32.27       33.45       33.45       33.45       33.45       32.27       30.73       29.27       27.88       26.55    
        25.29       24.08       22.93       21.84       20.80       19.81       18.87       17.97       17.11       16.30    
        15.52       14.78       14.08       13.41       12.77       12.16       11.58       11.03       10.51       10.01    
        9.530       9.076       8.644       8.232       7.840       7.467       7.111       6.773       6.450       6.143    
        5.851       5.572       5.307       5.054       4.813       4.584       4.366       4.158       3.960       3.771    
        3.592       3.421       3.258       3.103       2.955       2.814       2.680       2.553       2.431       2.315    
        2.205       2.100       2.000       2.100       2.205       2.315       2.431       2.553       2.680       2.814    
        2.955       3.103       3.258       3.421       3.592       3.771       3.960       4.158       4.366       4.584    
        4.813       5.054       5.307       5.572       5.851       6.143       6.450       6.773       7.111       7.467    
        7.840       8.232       8.644       9.076       9.530       10.01       10.51       11.03       11.58       12.16    
        12.77       13.41       14.08       14.78       15.52       16.30       17.11       17.97       18.87       19.81    
        20.80       21.84       22.93       24.08       25.29       26.55       27.88       29.27       30.73       32.27    
        33.89       35.58       37.36       39.23       41.19       43.25       45.41       47.68       47.98       47.98    
        47.98       47.98       47.98       47.98       47.98       47.98       47.98       47.98       47.98       47.98    
        47.98       47.98       47.98       47.98       47.98       47.98    

                           WIDTH ALONG COLS (DELC)  READ ON UNIT  1 USING FORMAT: "           (10G15.6)"
                           -----------------------------------------------------------------------------

            1           2           3           4           5           6           7           8           9          10
           11          12          13          14          15          16          17          18          19          20
           21          22          23          24          25          26          27          28          29          30
           31          32          33          34          35          36          37          38          39          40
           41          42          43          44          45          46          47          48          49          50
           51          52          53          54          55          56          57          58          59          60
           61          62          63          64          65          66          67          68          69          70
           71          72          73          74          75          76          77          78          79          80
           81          82          83          84          85          86          87          88          89          90
           91          92          93          94          95          96          97          98          99         100
          101         102         103         104         105         106         107         108         109         110
          111         112         113         114         115         116         117         118         119         120
          121         122         123         124         125         126         127         128         129         130
          131         132         133         134         135         136         137         138         139         140
          141         142         143         144         145         146         147         148         149         150
          151         152         153         154         155         156         157         158         159         160
          161         162         163         164         165         166         167         168         169         170
          171         172         173         174         175         176         177         178         179         180
          181         182         183         184         185         186         187         188         189         190
          191         192         193         194         195         196         197         198         199         200
          201         202         203         204         205         206         207         208         209         210
          211         212         213         214         215         216         217         218         219         220
          221         222         223         224         225         226         227         228         229         230
          231         232         233         234         235         236         237         238         239         240
          241         242         243         244         245         246         247         248         249         250
          251         252         253         254         255         256         257         258         259         260
          261         262         263         264         265         266         267         268         269         270
          271         272         273         274         275         276         277         278         279         280
          281         282         283         284         285         286         287
 .............................................................................................................................
   1    49.79       49.79       49.79       49.79       49.79       49.79       49.79       49.79       49.79       49.79    
        49.79       49.79       49.79       49.79       49.79       49.79       49.79       49.79       49.79       49.79    
        49.79       49.79       49.79       49.79       49.79       49.79       49.79       49.79       49.79       49.79    
        49.79       49.79       49.79       49.79       49.79       49.79       49.79       49.79       49.79       49.79    
        49.79       49.79       49.79       49.79       49.79       49.79       49.79       49.79       49.79       49.79    
        49.79       49.79       49.79       49.79       47.68       45.41       43.25       41.19       39.23       37.36    
        35.58       33.89       32.27       30.73       29.27       27.88       26.55       25.29       24.08       22.93    
        21.84       20.80       19.81       18.87       17.97       17.11       16.30       15.52       14.78       14.08    
        13.41       12.77       12.16       11.58       11.03       10.51       10.01       9.530       9.076       8.644    
        8.232       7.840       7.467       7.111       6.773       6.450       6.143       5.851       5.572       5.307    
        5.054       4.813       4.584       4.366       4.158       3.960       3.771       3.592       3.421       3.258    
        3.103       2.955       2.814       2.680       2.553       2.431       2.315       2.205       2.100       2.000    
        2.100       2.205       2.315       2.431       2.553       2.680       2.814       2.955       3.103       3.258    
        3.421       3.592       3.771       3.960       4.158       4.366       4.584       4.813       5.054       5.307    
        5.572       5.851       6.143       6.450       6.773       7.111       7.467       7.840       8.151       8.151    
        8.151       8.151       8.151       8.151       8.151       8.151       8.151       8.151       8.151       8.151    
        8.151       8.151       7.840       7.467       7.111       6.773       6.450       6.143       5.851       5.572    
        5.307       5.054       4.813       4.584       4.366       4.158       3.960       3.771       3.592       3.421    
        3.258       3.103       2.955       2.814       2.680       2.553       2.431       2.315       2.205       2.100    
        2.000       2.100       2.205       2.315       2.390       2.390       2.390       2.390       2.390       2.390    
        2.390       2.390       2.390       2.390       2.390       2.390       2.390       2.390       2.315       2.205    
        2.100       2.000       2.100       2.205       2.315       2.431       2.553       2.680       2.814       2.955    
        3.103       3.258       3.421       3.592       3.771       3.960       4.158       4.366       4.584       4.813    
        5.054       5.307       5.572       5.851       6.143       6.450       6.773       7.111       7.467       7.840    
        8.232       8.644       9.076       9.530       10.01       10.51       11.03       11.58       12.16       12.77    
        13.41       14.08       14.78       15.52       16.30       17.11       17.97       18.87       19.81       20.80    
        21.84       22.93       24.08       25.29       26.55       27.88       29.27       30.73       32.27       33.89    
        35.58       37.36       39.23       41.19       43.25       45.41       46.86       46.86       46.86       46.86    
        46.86       46.86       46.86       46.86       46.86       46.86       46.86    

                           TOP ELEV. OF 1ST LAYER   READ ON UNIT  1 USING FORMAT: "           (10G15.6)"
                           -----------------------------------------------------------------------------

                     CELL THICKNESS (DZ)      FOR LAYER  1 READ ON UNIT  1 USING FORMAT: "           (10G15.6)"
                     ------------------------------------------------------------------------------------------

                     CELL THICKNESS (DZ)      FOR LAYER  2 READ ON UNIT  1 USING FORMAT: "           (10G15.6)"
                     ------------------------------------------------------------------------------------------

                     CELL THICKNESS (DZ)      FOR LAYER  3 READ ON UNIT  1 USING FORMAT: "           (10G15.6)"
                     ------------------------------------------------------------------------------------------
                                       POROSITY                 =  0.3000000     FOR LAYER  1
                                       POROSITY                 =  0.3000000     FOR LAYER  2
                                       POROSITY                 =  0.3000000     FOR LAYER  3

                     CONCN. BOUNDARY ARRAY    FOR LAYER  1 READ ON UNIT  1 USING FORMAT: "              (30I3)"
                     ------------------------------------------------------------------------------------------

                     CONCN. BOUNDARY ARRAY    FOR LAYER  2 READ ON UNIT  1 USING FORMAT: "              (30I3)"
                     ------------------------------------------------------------------------------------------

                     CONCN. BOUNDARY ARRAY    FOR LAYER  3 READ ON UNIT  1 USING FORMAT: "              (30I3)"
                     ------------------------------------------------------------------------------------------
                                       INITIAL CONC.: COMP.  01 =   0.000000     FOR LAYER  1
                                       INITIAL CONC.: COMP.  01 =   0.000000     FOR LAYER  2
                                       INITIAL CONC.: COMP.  01 =   0.000000     FOR LAYER  3
                                       INITIAL CONC.: COMP.  02 =   0.000000     FOR LAYER  1
                                       INITIAL CONC.: COMP.  02 =   0.000000     FOR LAYER  2
                                       INITIAL CONC.: COMP.  02 =   0.000000     FOR LAYER  3
                                       INITIAL CONC.: COMP.  03 =   0.000000     FOR LAYER  1
                                       INITIAL CONC.: COMP.  03 =   0.000000     FOR LAYER  2
                                       INITIAL CONC.: COMP.  03 =   0.000000     FOR LAYER  3

 VALUE INDICATING INACTIVE CONCENTRATION CELLS =   -999.0000    
 MINIMUM SATURATED THICKNESS [THKMIN] ALLOWED =  0.0000 OF TOTAL CELL THICKNESS


 OUTPUT CONTROL OPTIONS
 ----------------------

 DO NOT PRINT CELL CONCENTRATION
 DO NOT PRINT PARTICLE NUMBER IN EACH CELL
 DO NOT PRINT RETARDATION FACTOR
 DO NOT PRINT DISPERSION COEFFICIENT
 SAVE DISSOLVED PHASE CONCENTRATIONS IN UNFORMATTED FILES [MT3Dnnn.UCN]
  FOR EACH SPECIES ON UNITS 201 AND ABOVE

 SIMULATION RESULTS ARE SAVED EVERY   1 TRANSPORT STEP(S)

 NUMBER OF OBSERVATION POINTS =    0

 SAVE ONE-LINE SUMMARY OF MASS BUDGETS IN FILES [MT3Dnnn.MAS]
  FOR EACH SPECIES ON UNITS 601 AND ABOVE, EVERY  1 TRANSPORT STEPS

 MAXIMUM LENGTH ALONG THE X (J) AXIS =   4063.177    
 MAXIMUM LENGTH ALONG THE Y (I) AXIS =   5487.241    
 MAXIMUM LENGTH ALONG THE Z (K) AXIS =   35.00000    


 ADVECTION SOLUTION OPTIONS
 --------------------------

 ADVECTION IS SOLVED WITH THE ULTIMATE SCHEME
 COURANT NUMBER ALLOWED IN SOLVING THE ADVECTION TERM =  1.00    


 DISPERSION INPUT PARAMETERS
 ---------------------------


                     LONG. DISPERSIVITY (AL)  FOR LAYER  1 READ ON UNIT  3 USING FORMAT: "           (10G15.6)"
                     ------------------------------------------------------------------------------------------

                     LONG. DISPERSIVITY (AL)  FOR LAYER  2 READ ON UNIT  3 USING FORMAT: "           (10G15.6)"
                     ------------------------------------------------------------------------------------------

                     LONG. DISPERSIVITY (AL)  FOR LAYER  3 READ ON UNIT  3 USING FORMAT: "           (10G15.6)"
                     ------------------------------------------------------------------------------------------
                                       H. TRANS./LONG. DISP.    =  0.1000000    
                                       V. TRANS./LONG. DISP.    =  0.1000000E-01
                                       DIFFUSION COEFFICIENT    =   0.000000    



                                               SOLUTION BY THE GENERALIZED CONJUGATE GRADIENT METHOD
                                               -----------------------------------------------------
                                     MAXIMUM OUTER ITERATIONS ALLOWED FOR CLOSURE =        1
                                     MAXIMUM INNER ITERATIONS ALLOWED FOR CLOSURE =       50
                                                    PRECONDITIONING TYPE SELECTED =    1
                                                           ACCELERATION PARAMETER =     1.0000    
                                       CONCENTRATION CHANGE CRITERION FOR CLOSURE =    0.10000E-03
                                       GCG CONCENTRATION CHANGE PRINTOUT INTERVAL =      999


 TRANSPORT OBSERVATION INPUT DATA
 --------------------------------

 NUMBER OF CONCENTRATION OBSERVATION WELLS:     0
    MULTIPLIER FOR OBSERVED CONCENTRATIONS:    1.000    
    OPTION FOR CALCULATING RESIDUAL ERRORS:     1
         OPTION FOR LOGARITHMIC CONVERSION:     0
 OPTION FOR INTERPOLATING CALCULATED CONC.:     0

 OBS_NAME     LAYER  ROW  COL. SPECIES  OBS_TIME   ROW_OFFSET  COL_OFFSET    WEIGHT      OBS_CONC
 ...................................................................................................


                                   ++++++++++++++++++++++++++++++++++++++++++++++++++++++++++++++
                                                       STRESS PERIOD NO.  001
                                   ++++++++++++++++++++++++++++++++++++++++++++++++++++++++++++++


 LENGTH OF CURRENT STRESS PERIOD =   100.0000    
 NUMBER OF TIME STEPS FOR CURRENT STRESS PERIOD =   10
 TIME STEP MULTIPLIER USED IN FLOW SOLUTION =   1.000000    

 ***Type of Transport Simulation is TRANSIENT

 USER-SPECIFIED TRANSPORT STEPSIZE =   0.000000       d
 MAXIMUM NUMBER OF TRANSPORT STEPS ALLOWED  IN ONE FLOW TIME STEP =      1000
 MULTIPLIER FOR SUCCESSIVE TRANSPORT STEPS  [USED IN IMPLICIT SCHEMES] =     1.000
 MAXIMUM TRANSPORT STEP SIZE  [USED IN IMPLICIT SCHEMES] =   0.000000       d

 CONCENTRATION OF RECHARGE FLUXES WILL BE READ IN STRESS PERIOD  1

                           RECH. CONC. COMP.  01    READ ON UNIT  4 USING FORMAT: "           (10G15.6)"
                           -----------------------------------------------------------------------------

                           RECH. CONC. COMP.  02    READ ON UNIT  4 USING FORMAT: "           (10G15.6)"
                           -----------------------------------------------------------------------------

                           RECH. CONC. COMP.  03    READ ON UNIT  4 USING FORMAT: "           (10G15.6)"
                           -----------------------------------------------------------------------------

 CONCENTRATION OF E. T. FLUXES WILL BE READ IN STRESS PERIOD  1
                                       E. T. CONC. COMP.  01    =   0.000000    
                                       E. T. CONC. COMP.  02    =   0.000000    
                                       E. T. CONC. COMP.  03    =   0.000000    

 NO. OF POINT SINKS/SOURCES OF SPECIFIED CONCONCENTRATIONS =    0 IN STRESS PERIOD  1


                                          ================================================
                                                         TIME STEP NO.  001
                                          ================================================

 FROM TIME =   0.0000     TO    10.000    


                    "THKSAT          " FLOW TERMS FOR TIME STEP  1, STRESS PERIOD  1 READ UNFORMATTED ON UNIT 10
                    --------------------------------------------------------------------------------------------

                    "QXX             " FLOW TERMS FOR TIME STEP  1, STRESS PERIOD  1 READ UNFORMATTED ON UNIT 10
                    --------------------------------------------------------------------------------------------

                    "QYY             " FLOW TERMS FOR TIME STEP  1, STRESS PERIOD  1 READ UNFORMATTED ON UNIT 10
                    --------------------------------------------------------------------------------------------

                    "QZZ             " FLOW TERMS FOR TIME STEP  1, STRESS PERIOD  1 READ UNFORMATTED ON UNIT 10
                    --------------------------------------------------------------------------------------------

 MAXIMUM STEPSIZE DURING WHICH ANY PARTICLE CANNOT MOVE MORE THAN ONE CELL
 =  468.5    (WHEN MIN. R.F.=1)  AT K=   2, I=  21, J=  54

 MAXIMUM STEPSIZE WHICH MEETS STABILITY CRITERION OF THE ADVECTION TERM
 (FOR PURE FINITE-DIFFERENCE OPTION, MIXELM=0) 
 =  383.5    (WHEN MIN. R.F.=1)  AT K=   2, I=  22, J=  53

                    "CNH             " FLOW TERMS FOR TIME STEP  1, STRESS PERIOD  1 READ UNFORMATTED ON UNIT 10
                    --------------------------------------------------------------------------------------------

                    "RCH             " FLOW TERMS FOR TIME STEP  1, STRESS PERIOD  1 READ UNFORMATTED ON UNIT 10
                    --------------------------------------------------------------------------------------------

                    "EVT             " FLOW TERMS FOR TIME STEP  1, STRESS PERIOD  1 READ UNFORMATTED ON UNIT 10
                    --------------------------------------------------------------------------------------------


 TOTAL NUMBER OF POINT SOURCES/SINKS PRESENT IN THE FLOW MODEL =  3540

 MAXIMUM STEPSIZE WHICH MEETS STABILITY CRITERION OF THE SINK & SOURCE TERM
 =  390.0    (WHEN MIN. R.F.=1)  AT K=   2, I=  21, J=  53

 MAXIMUM STEPSIZE WHICH MEETS STABILITY CRITERION OF THE DISPERSION TERM
 =  8.084    (WHEN MIN. R.F.=1)  AT K=   2, I=  22, J=  52


     1 CALLS TO GCG PACKAGE FOR TRANSPORT TIME STEP   1 IN FLOW TIME STEP   1 STRESS PERIOD   1
     6 TOTAL ITERATIONS
  MAXIMUM CONCENTRATION CHANGES FOR EACH ITERATION:
  MAX. CHANGE LAYER,ROW,COL MAX. CHANGE LAYER,ROW,COL MAX. CHANGE LAYER,ROW,COL MAX. CHANGE LAYER,ROW,COL MAX. CHANGE LAYER,ROW,COL
 ------------------------------------------------------------------------------------------------------------------------------------
    6.774     (  1,211,124)  0.6532     (  1,208,124)  0.6450E-01 (  1,209,125)  0.5474E-02 (  1,208,125)  0.4139E-03 (  1,213,126)
   0.4530E-04 (  1,209,126)


     1 CALLS TO GCG PACKAGE FOR TRANSPORT TIME STEP   1 IN FLOW TIME STEP   1 STRESS PERIOD   1
     5 TOTAL ITERATIONS
  MAXIMUM CONCENTRATION CHANGES FOR EACH ITERATION:
  MAX. CHANGE LAYER,ROW,COL MAX. CHANGE LAYER,ROW,COL MAX. CHANGE LAYER,ROW,COL MAX. CHANGE LAYER,ROW,COL MAX. CHANGE LAYER,ROW,COL
 ------------------------------------------------------------------------------------------------------------------------------------
   0.3161     (  1,131,254)  0.2683E-01 (  1,127,254)  0.2359E-02 (  1,128,256)  0.1535E-03 (  1,134,253)  0.1404E-04 (  1,127,253)


     1 CALLS TO GCG PACKAGE FOR TRANSPORT TIME STEP   1 IN FLOW TIME STEP   1 STRESS PERIOD   1
     4 TOTAL ITERATIONS
  MAXIMUM CONCENTRATION CHANGES FOR EACH ITERATION:
  MAX. CHANGE LAYER,ROW,COL MAX. CHANGE LAYER,ROW,COL MAX. CHANGE LAYER,ROW,COL MAX. CHANGE LAYER,ROW,COL MAX. CHANGE LAYER,ROW,COL
 ------------------------------------------------------------------------------------------------------------------------------------
   0.8148E-01 (  1,192, 53)  0.7437E-02 (  1,188, 53)  0.6042E-03 (  1,189, 54)  0.5019E-04 (  1,194, 54)



 >>>>>>>>>>>>>>>>>>>>>>>>>>>>>>>>>>>>>>>>>>>>>>>>>>>>>>>FOR COMPONENT NO. 01<<<<<<<<<<<<<<<<<<<<<<<<<<<<<<<<<<<<<<<<<<<<<<<<<<<<<<<


                                            -------------------------------------------
                                                      TRANSPORT STEP NO.    1
                                            -------------------------------------------

 TOTAL ELAPSED TIME SINCE BEGINNING OF SIMULATION =   10.00000       d
 .....................................................................

                     CUMMULATIVE MASS BUDGETS AT END OF TRANSPORT STEP    1, TIME STEP    1, STRESS PERIOD    1
                     ------------------------------------------------------------------------------------------

                                                             IN                           OUT
                                                      ----------------             ----------------
                               CONSTANT CONCENTRATION:    0.000000                    0.000000    
                                        CONSTANT HEAD:    0.000000                    0.000000    
                                             RECHARGE:    3867.677                    0.000000    
                                   EVAPOTRANSPIRATION:    0.000000                    0.000000    
                                MASS STORAGE (SOLUTE):    0.000000                   -3865.045    
                            ---------------------------------------------------------------------------
                                              [TOTAL]:    3867.677       mg          -3865.045       mg

                                                          NET (IN - OUT):    2.632324    
                                                   DISCREPANCY (PERCENT):   0.6808273E-01



 >>>>>>>>>>>>>>>>>>>>>>>>>>>>>>>>>>>>>>>>>>>>>>>>>>>>>>>FOR COMPONENT NO. 02<<<<<<<<<<<<<<<<<<<<<<<<<<<<<<<<<<<<<<<<<<<<<<<<<<<<<<<


                                            -------------------------------------------
                                                      TRANSPORT STEP NO.    1
                                            -------------------------------------------

 TOTAL ELAPSED TIME SINCE BEGINNING OF SIMULATION =   10.00000       d
 .....................................................................

                     CUMMULATIVE MASS BUDGETS AT END OF TRANSPORT STEP    1, TIME STEP    1, STRESS PERIOD    1
                     ------------------------------------------------------------------------------------------

                                                             IN                           OUT
                                                      ----------------             ----------------
                               CONSTANT CONCENTRATION:    0.000000                    0.000000    
                                        CONSTANT HEAD:    0.000000                    0.000000    
                                             RECHARGE:    252.1323                    0.000000    
                                   EVAPOTRANSPIRATION:    0.000000                    0.000000    
                                MASS STORAGE (SOLUTE):    0.000000                   -251.9608    
                            ---------------------------------------------------------------------------
                                              [TOTAL]:    252.1323       mg          -251.9608       mg

                                                          NET (IN - OUT):   0.1715698    
                                                   DISCREPANCY (PERCENT):   0.6807069E-01



 >>>>>>>>>>>>>>>>>>>>>>>>>>>>>>>>>>>>>>>>>>>>>>>>>>>>>>>FOR COMPONENT NO. 03<<<<<<<<<<<<<<<<<<<<<<<<<<<<<<<<<<<<<<<<<<<<<<<<<<<<<<<


                                            -------------------------------------------
                                                      TRANSPORT STEP NO.    1
                                            -------------------------------------------

 TOTAL ELAPSED TIME SINCE BEGINNING OF SIMULATION =   10.00000       d
 .....................................................................

                     CUMMULATIVE MASS BUDGETS AT END OF TRANSPORT STEP    1, TIME STEP    1, STRESS PERIOD    1
                     ------------------------------------------------------------------------------------------

                                                             IN                           OUT
                                                      ----------------             ----------------
                               CONSTANT CONCENTRATION:    0.000000                    0.000000    
                                        CONSTANT HEAD:    0.000000                    0.000000    
                                             RECHARGE:    10.81718                    0.000000    
                                   EVAPOTRANSPIRATION:    0.000000                    0.000000    
                                MASS STORAGE (SOLUTE):    0.000000                   -10.80936    
                            ---------------------------------------------------------------------------
                                              [TOTAL]:    10.81718       mg          -10.80936       mg

                                                          NET (IN - OUT):   0.7815361E-02
                                                   DISCREPANCY (PERCENT):   0.7227566E-01


                                          ================================================
                                                         TIME STEP NO.  002
                                          ================================================

 FROM TIME =   10.000     TO    20.000    



     1 CALLS TO GCG PACKAGE FOR TRANSPORT TIME STEP   1 IN FLOW TIME STEP   2 STRESS PERIOD   1
     5 TOTAL ITERATIONS
  MAXIMUM CONCENTRATION CHANGES FOR EACH ITERATION:
  MAX. CHANGE LAYER,ROW,COL MAX. CHANGE LAYER,ROW,COL MAX. CHANGE LAYER,ROW,COL MAX. CHANGE LAYER,ROW,COL MAX. CHANGE LAYER,ROW,COL
 ------------------------------------------------------------------------------------------------------------------------------------
    1.022     (  1,211,124)  0.8652E-01 (  1,208,124)  0.7730E-02 (  1,209,125)  0.7153E-03 (  1,208,125)  0.5436E-04 (  1,209,125)


     1 CALLS TO GCG PACKAGE FOR TRANSPORT TIME STEP   1 IN FLOW TIME STEP   2 STRESS PERIOD   1
     5 TOTAL ITERATIONS
  MAXIMUM CONCENTRATION CHANGES FOR EACH ITERATION:
  MAX. CHANGE LAYER,ROW,COL MAX. CHANGE LAYER,ROW,COL MAX. CHANGE LAYER,ROW,COL MAX. CHANGE LAYER,ROW,COL MAX. CHANGE LAYER,ROW,COL
 ------------------------------------------------------------------------------------------------------------------------------------
    1.017     (  1,131,254)  0.7841E-01 (  1,127,254)  0.6302E-02 (  1,128,256)  0.4213E-03 (  1,134,253)  0.4211E-04 (  1,127,253)


     1 CALLS TO GCG PACKAGE FOR TRANSPORT TIME STEP   1 IN FLOW TIME STEP   2 STRESS PERIOD   1
     5 TOTAL ITERATIONS
  MAXIMUM CONCENTRATION CHANGES FOR EACH ITERATION:
  MAX. CHANGE LAYER,ROW,COL MAX. CHANGE LAYER,ROW,COL MAX. CHANGE LAYER,ROW,COL MAX. CHANGE LAYER,ROW,COL MAX. CHANGE LAYER,ROW,COL
 ------------------------------------------------------------------------------------------------------------------------------------
    1.016     (  1,192, 53)  0.8053E-01 (  1,188, 53)  0.6477E-02 (  1,189, 55)  0.5309E-03 (  1,194, 54)  0.4137E-04 (  1,189, 55)



 >>>>>>>>>>>>>>>>>>>>>>>>>>>>>>>>>>>>>>>>>>>>>>>>>>>>>>>FOR COMPONENT NO. 01<<<<<<<<<<<<<<<<<<<<<<<<<<<<<<<<<<<<<<<<<<<<<<<<<<<<<<<


                                            -------------------------------------------
                                                      TRANSPORT STEP NO.    1
                                            -------------------------------------------

 TOTAL ELAPSED TIME SINCE BEGINNING OF SIMULATION =   20.00000       d
 .....................................................................

                     CUMMULATIVE MASS BUDGETS AT END OF TRANSPORT STEP    1, TIME STEP    2, STRESS PERIOD    1
                     ------------------------------------------------------------------------------------------

                                                             IN                           OUT
                                                      ----------------             ----------------
                               CONSTANT CONCENTRATION:    0.000000                    0.000000    
                                        CONSTANT HEAD:    0.000000                    0.000000    
                                             RECHARGE:    7735.354                    0.000000    
                                   EVAPOTRANSPIRATION:    0.000000                   0.1063315E-07
                                MASS STORAGE (SOLUTE):   0.3457289E-02               -7732.695    
                            ---------------------------------------------------------------------------
                                              [TOTAL]:    7735.358       mg          -7732.695       mg

                                                          NET (IN - OUT):    2.662598    
                                                   DISCREPANCY (PERCENT):   0.3442706E-01



 >>>>>>>>>>>>>>>>>>>>>>>>>>>>>>>>>>>>>>>>>>>>>>>>>>>>>>>FOR COMPONENT NO. 02<<<<<<<<<<<<<<<<<<<<<<<<<<<<<<<<<<<<<<<<<<<<<<<<<<<<<<<


                                            -------------------------------------------
                                                      TRANSPORT STEP NO.    1
                                            -------------------------------------------

 TOTAL ELAPSED TIME SINCE BEGINNING OF SIMULATION =   20.00000       d
 .....................................................................

                     CUMMULATIVE MASS BUDGETS AT END OF TRANSPORT STEP    1, TIME STEP    2, STRESS PERIOD    1
                     ------------------------------------------------------------------------------------------

                                                             IN                           OUT
                                                      ----------------             ----------------
                               CONSTANT CONCENTRATION:    0.000000                    0.000000    
                                        CONSTANT HEAD:    0.000000                    0.000000    
                                             RECHARGE:    504.2647                    0.000000    
                                   EVAPOTRANSPIRATION:    0.000000                   0.4680744E-09
                                MASS STORAGE (SOLUTE):   0.1285166E-03               -504.0924    
                            ---------------------------------------------------------------------------
                                              [TOTAL]:    504.2648       mg          -504.0924       mg

                                                          NET (IN - OUT):   0.1723938    
                                                   DISCREPANCY (PERCENT):   0.3419300E-01



 >>>>>>>>>>>>>>>>>>>>>>>>>>>>>>>>>>>>>>>>>>>>>>>>>>>>>>>FOR COMPONENT NO. 03<<<<<<<<<<<<<<<<<<<<<<<<<<<<<<<<<<<<<<<<<<<<<<<<<<<<<<<


                                            -------------------------------------------
                                                      TRANSPORT STEP NO.    1
                                            -------------------------------------------

 TOTAL ELAPSED TIME SINCE BEGINNING OF SIMULATION =   20.00000       d
 .....................................................................

                     CUMMULATIVE MASS BUDGETS AT END OF TRANSPORT STEP    1, TIME STEP    2, STRESS PERIOD    1
                     ------------------------------------------------------------------------------------------

                                                             IN                           OUT
                                                      ----------------             ----------------
                               CONSTANT CONCENTRATION:    0.000000                    0.000000    
                                        CONSTANT HEAD:    0.000000                    0.000000    
                                             RECHARGE:    21.63435                    0.000000    
                                   EVAPOTRANSPIRATION:    0.000000                   0.1941644E-09
                                MASS STORAGE (SOLUTE):   0.4082304E-04               -21.62646    
                            ---------------------------------------------------------------------------
                                              [TOTAL]:    21.63439       mg          -21.62646       mg

                                                          NET (IN - OUT):   0.7932663E-02
                                                   DISCREPANCY (PERCENT):   0.3667363E-01


                                          ================================================
                                                         TIME STEP NO.  003
                                          ================================================

 FROM TIME =   20.000     TO    30.000    



     1 CALLS TO GCG PACKAGE FOR TRANSPORT TIME STEP   1 IN FLOW TIME STEP   3 STRESS PERIOD   1
     5 TOTAL ITERATIONS
  MAXIMUM CONCENTRATION CHANGES FOR EACH ITERATION:
  MAX. CHANGE LAYER,ROW,COL MAX. CHANGE LAYER,ROW,COL MAX. CHANGE LAYER,ROW,COL MAX. CHANGE LAYER,ROW,COL MAX. CHANGE LAYER,ROW,COL
 ------------------------------------------------------------------------------------------------------------------------------------
   0.5092     (  1,211,124)  0.3859E-01 (  1,208,125)  0.3210E-02 (  1,209,127)  0.3092E-03 (  1,208,125)  0.2360E-04 (  1,209,125)


     1 CALLS TO GCG PACKAGE FOR TRANSPORT TIME STEP   1 IN FLOW TIME STEP   3 STRESS PERIOD   1
     5 TOTAL ITERATIONS
  MAXIMUM CONCENTRATION CHANGES FOR EACH ITERATION:
  MAX. CHANGE LAYER,ROW,COL MAX. CHANGE LAYER,ROW,COL MAX. CHANGE LAYER,ROW,COL MAX. CHANGE LAYER,ROW,COL MAX. CHANGE LAYER,ROW,COL
 ------------------------------------------------------------------------------------------------------------------------------------
   0.5046     (  1,131,254)  0.3572E-01 (  1,127,255)  0.2468E-02 (  1,128,256)  0.1895E-03 (  1,188, 54)  0.1931E-04 (  1,127,253)


     1 CALLS TO GCG PACKAGE FOR TRANSPORT TIME STEP   1 IN FLOW TIME STEP   3 STRESS PERIOD   1
     5 TOTAL ITERATIONS
  MAXIMUM CONCENTRATION CHANGES FOR EACH ITERATION:
  MAX. CHANGE LAYER,ROW,COL MAX. CHANGE LAYER,ROW,COL MAX. CHANGE LAYER,ROW,COL MAX. CHANGE LAYER,ROW,COL MAX. CHANGE LAYER,ROW,COL
 ------------------------------------------------------------------------------------------------------------------------------------
   0.5058     (  1,192, 53)  0.3533E-01 (  1,188, 53)  0.2810E-02 (  1,189, 55)  0.2156E-03 (  1,194, 54)  0.1585E-04 (  1,189, 55)



 >>>>>>>>>>>>>>>>>>>>>>>>>>>>>>>>>>>>>>>>>>>>>>>>>>>>>>>FOR COMPONENT NO. 01<<<<<<<<<<<<<<<<<<<<<<<<<<<<<<<<<<<<<<<<<<<<<<<<<<<<<<<


                                            -------------------------------------------
                                                      TRANSPORT STEP NO.    1
                                            -------------------------------------------

 TOTAL ELAPSED TIME SINCE BEGINNING OF SIMULATION =   30.00000       d
 .....................................................................

                     CUMMULATIVE MASS BUDGETS AT END OF TRANSPORT STEP    1, TIME STEP    3, STRESS PERIOD    1
                     ------------------------------------------------------------------------------------------

                                                             IN                           OUT
                                                      ----------------             ----------------
                               CONSTANT CONCENTRATION:    0.000000                    0.000000    
                                        CONSTANT HEAD:    0.000000                    0.000000    
                                             RECHARGE:    11603.03                    0.000000    
                                   EVAPOTRANSPIRATION:    0.000000                   0.1978687E-06
                                MASS STORAGE (SOLUTE):   0.2156072E-01               -11600.36    
                            ---------------------------------------------------------------------------
                                              [TOTAL]:    11603.05       mg          -11600.36       mg

                                                          NET (IN - OUT):    2.692383    
                                                   DISCREPANCY (PERCENT):   0.2320678E-01



 >>>>>>>>>>>>>>>>>>>>>>>>>>>>>>>>>>>>>>>>>>>>>>>>>>>>>>>FOR COMPONENT NO. 02<<<<<<<<<<<<<<<<<<<<<<<<<<<<<<<<<<<<<<<<<<<<<<<<<<<<<<<


                                            -------------------------------------------
                                                      TRANSPORT STEP NO.    1
                                            -------------------------------------------

 TOTAL ELAPSED TIME SINCE BEGINNING OF SIMULATION =   30.00000       d
 .....................................................................

                     CUMMULATIVE MASS BUDGETS AT END OF TRANSPORT STEP    1, TIME STEP    3, STRESS PERIOD    1
                     ------------------------------------------------------------------------------------------

                                                             IN                           OUT
                                                      ----------------             ----------------
                               CONSTANT CONCENTRATION:    0.000000                    0.000000    
                                        CONSTANT HEAD:    0.000000                    0.000000    
                                             RECHARGE:    756.3970                    0.000000    
                                   EVAPOTRANSPIRATION:    0.000000                   0.7273614E-08
                                MASS STORAGE (SOLUTE):   0.7767476E-03               -756.2248    
                            ---------------------------------------------------------------------------
                                              [TOTAL]:    756.3978       mg          -756.2248       mg

                                                          NET (IN - OUT):   0.1730347    
                                                   DISCREPANCY (PERCENT):   0.2287876E-01



 >>>>>>>>>>>>>>>>>>>>>>>>>>>>>>>>>>>>>>>>>>>>>>>>>>>>>>>FOR COMPONENT NO. 03<<<<<<<<<<<<<<<<<<<<<<<<<<<<<<<<<<<<<<<<<<<<<<<<<<<<<<<


                                            -------------------------------------------
                                                      TRANSPORT STEP NO.    1
                                            -------------------------------------------

 TOTAL ELAPSED TIME SINCE BEGINNING OF SIMULATION =   30.00000       d
 .....................................................................

                     CUMMULATIVE MASS BUDGETS AT END OF TRANSPORT STEP    1, TIME STEP    3, STRESS PERIOD    1
                     ------------------------------------------------------------------------------------------

                                                             IN                           OUT
                                                      ----------------             ----------------
                               CONSTANT CONCENTRATION:    0.000000                    0.000000    
                                        CONSTANT HEAD:    0.000000                    0.000000    
                                             RECHARGE:    32.45153                    0.000000    
                                   EVAPOTRANSPIRATION:    0.000000                   0.1586588E-08
                                MASS STORAGE (SOLUTE):   0.2462979E-03               -32.44371    
                            ---------------------------------------------------------------------------
                                              [TOTAL]:    32.45178       mg          -32.44371       mg

                                                          NET (IN - OUT):   0.8068085E-02
                                                   DISCREPANCY (PERCENT):   0.2486485E-01


                                          ================================================
                                                         TIME STEP NO.  004
                                          ================================================

 FROM TIME =   30.000     TO    40.000    



     1 CALLS TO GCG PACKAGE FOR TRANSPORT TIME STEP   1 IN FLOW TIME STEP   4 STRESS PERIOD   1
     5 TOTAL ITERATIONS
  MAXIMUM CONCENTRATION CHANGES FOR EACH ITERATION:
  MAX. CHANGE LAYER,ROW,COL MAX. CHANGE LAYER,ROW,COL MAX. CHANGE LAYER,ROW,COL MAX. CHANGE LAYER,ROW,COL MAX. CHANGE LAYER,ROW,COL
 ------------------------------------------------------------------------------------------------------------------------------------
   0.3379     (  1,211,124)  0.2338E-01 (  1,208,125)  0.1776E-02 (  1,209,127)  0.1742E-03 (  1,208,125)  0.1359E-04 (  1,209,125)


     1 CALLS TO GCG PACKAGE FOR TRANSPORT TIME STEP   1 IN FLOW TIME STEP   4 STRESS PERIOD   1
     5 TOTAL ITERATIONS
  MAXIMUM CONCENTRATION CHANGES FOR EACH ITERATION:
  MAX. CHANGE LAYER,ROW,COL MAX. CHANGE LAYER,ROW,COL MAX. CHANGE LAYER,ROW,COL MAX. CHANGE LAYER,ROW,COL MAX. CHANGE LAYER,ROW,COL
 ------------------------------------------------------------------------------------------------------------------------------------
   0.3333     (  1,131,254)  0.2200E-01 (  1,127,255)  0.1426E-02 (  1,126,255)  0.1159E-03 (  1,131,251)  0.1201E-04 (  1,127,256)


     1 CALLS TO GCG PACKAGE FOR TRANSPORT TIME STEP   1 IN FLOW TIME STEP   4 STRESS PERIOD   1
     5 TOTAL ITERATIONS
  MAXIMUM CONCENTRATION CHANGES FOR EACH ITERATION:
  MAX. CHANGE LAYER,ROW,COL MAX. CHANGE LAYER,ROW,COL MAX. CHANGE LAYER,ROW,COL MAX. CHANGE LAYER,ROW,COL MAX. CHANGE LAYER,ROW,COL
 ------------------------------------------------------------------------------------------------------------------------------------
   0.3348     (  1,192, 53)  0.2100E-01 (  1,188, 54)  0.1589E-02 (  1,189, 55)  0.1305E-03 (  1,188, 55)  0.8285E-05 (  1,189, 55)



 >>>>>>>>>>>>>>>>>>>>>>>>>>>>>>>>>>>>>>>>>>>>>>>>>>>>>>>FOR COMPONENT NO. 01<<<<<<<<<<<<<<<<<<<<<<<<<<<<<<<<<<<<<<<<<<<<<<<<<<<<<<<


                                            -------------------------------------------
                                                      TRANSPORT STEP NO.    1
                                            -------------------------------------------

 TOTAL ELAPSED TIME SINCE BEGINNING OF SIMULATION =   40.00000       d
 .....................................................................

                     CUMMULATIVE MASS BUDGETS AT END OF TRANSPORT STEP    1, TIME STEP    4, STRESS PERIOD    1
                     ------------------------------------------------------------------------------------------

                                                             IN                           OUT
                                                      ----------------             ----------------
                               CONSTANT CONCENTRATION:    0.000000                    0.000000    
                                        CONSTANT HEAD:    0.000000                    0.000000    
                                             RECHARGE:    15470.71                    0.000000    
                                   EVAPOTRANSPIRATION:    0.000000                   0.1071812E-05
                                MASS STORAGE (SOLUTE):   0.4880916E-01               -15468.03    
                            ---------------------------------------------------------------------------
                                              [TOTAL]:    15470.76       mg          -15468.03       mg

                                                          NET (IN - OUT):    2.728516    
                                                   DISCREPANCY (PERCENT):   0.1763815E-01



 >>>>>>>>>>>>>>>>>>>>>>>>>>>>>>>>>>>>>>>>>>>>>>>>>>>>>>>FOR COMPONENT NO. 02<<<<<<<<<<<<<<<<<<<<<<<<<<<<<<<<<<<<<<<<<<<<<<<<<<<<<<<


                                            -------------------------------------------
                                                      TRANSPORT STEP NO.    1
                                            -------------------------------------------

 TOTAL ELAPSED TIME SINCE BEGINNING OF SIMULATION =   40.00000       d
 .....................................................................

                     CUMMULATIVE MASS BUDGETS AT END OF TRANSPORT STEP    1, TIME STEP    4, STRESS PERIOD    1
                     ------------------------------------------------------------------------------------------

                                                             IN                           OUT
                                                      ----------------             ----------------
                               CONSTANT CONCENTRATION:    0.000000                    0.000000    
                                        CONSTANT HEAD:    0.000000                    0.000000    
                                             RECHARGE:    1008.529                    0.000000    
                                   EVAPOTRANSPIRATION:    0.000000                   0.3731524E-07
                                MASS STORAGE (SOLUTE):   0.1881224E-02               -1008.357    
                            ---------------------------------------------------------------------------
                                              [TOTAL]:    1008.531       mg          -1008.357       mg

                                                          NET (IN - OUT):   0.1741943    
                                                   DISCREPANCY (PERCENT):   0.1727357E-01



 >>>>>>>>>>>>>>>>>>>>>>>>>>>>>>>>>>>>>>>>>>>>>>>>>>>>>>>FOR COMPONENT NO. 03<<<<<<<<<<<<<<<<<<<<<<<<<<<<<<<<<<<<<<<<<<<<<<<<<<<<<<<


                                            -------------------------------------------
                                                      TRANSPORT STEP NO.    1
                                            -------------------------------------------

 TOTAL ELAPSED TIME SINCE BEGINNING OF SIMULATION =   40.00000       d
 .....................................................................

                     CUMMULATIVE MASS BUDGETS AT END OF TRANSPORT STEP    1, TIME STEP    4, STRESS PERIOD    1
                     ------------------------------------------------------------------------------------------

                                                             IN                           OUT
                                                      ----------------             ----------------
                               CONSTANT CONCENTRATION:    0.000000                    0.000000    
                                        CONSTANT HEAD:    0.000000                    0.000000    
                                             RECHARGE:    43.26871                    0.000000    
                                   EVAPOTRANSPIRATION:    0.000000                   0.7322857E-08
                                MASS STORAGE (SOLUTE):   0.5878136E-03               -43.26110    
                            ---------------------------------------------------------------------------
                                              [TOTAL]:    43.26929       mg          -43.26110       mg

                                                          NET (IN - OUT):   0.8197784E-02
                                                   DISCREPANCY (PERCENT):   0.1894776E-01


                                          ================================================
                                                         TIME STEP NO.  005
                                          ================================================

 FROM TIME =   40.000     TO    50.000    



     1 CALLS TO GCG PACKAGE FOR TRANSPORT TIME STEP   1 IN FLOW TIME STEP   5 STRESS PERIOD   1
     5 TOTAL ITERATIONS
  MAXIMUM CONCENTRATION CHANGES FOR EACH ITERATION:
  MAX. CHANGE LAYER,ROW,COL MAX. CHANGE LAYER,ROW,COL MAX. CHANGE LAYER,ROW,COL MAX. CHANGE LAYER,ROW,COL MAX. CHANGE LAYER,ROW,COL
 ------------------------------------------------------------------------------------------------------------------------------------
   0.2519     (  1,211,124)  0.1622E-01 (  1,208,125)  0.1119E-02 (  1,207,125)  0.1065E-03 (  1,208,127)  0.8583E-05 (  1,209,125)


     1 CALLS TO GCG PACKAGE FOR TRANSPORT TIME STEP   1 IN FLOW TIME STEP   5 STRESS PERIOD   1
     4 TOTAL ITERATIONS
  MAXIMUM CONCENTRATION CHANGES FOR EACH ITERATION:
  MAX. CHANGE LAYER,ROW,COL MAX. CHANGE LAYER,ROW,COL MAX. CHANGE LAYER,ROW,COL MAX. CHANGE LAYER,ROW,COL MAX. CHANGE LAYER,ROW,COL
 ------------------------------------------------------------------------------------------------------------------------------------
   0.2475     (  1,131,254)  0.1540E-01 (  1,127,255)  0.9425E-03 (  1,126,255)  0.8297E-04 (  1,131,251)


     1 CALLS TO GCG PACKAGE FOR TRANSPORT TIME STEP   1 IN FLOW TIME STEP   5 STRESS PERIOD   1
     4 TOTAL ITERATIONS
  MAXIMUM CONCENTRATION CHANGES FOR EACH ITERATION:
  MAX. CHANGE LAYER,ROW,COL MAX. CHANGE LAYER,ROW,COL MAX. CHANGE LAYER,ROW,COL MAX. CHANGE LAYER,ROW,COL MAX. CHANGE LAYER,ROW,COL
 ------------------------------------------------------------------------------------------------------------------------------------
   0.2487     (  1,191, 53)  0.1456E-01 (  1,192, 53)  0.1080E-02 (  1,194, 53)  0.8930E-04 (  1,188, 55)



 >>>>>>>>>>>>>>>>>>>>>>>>>>>>>>>>>>>>>>>>>>>>>>>>>>>>>>>FOR COMPONENT NO. 01<<<<<<<<<<<<<<<<<<<<<<<<<<<<<<<<<<<<<<<<<<<<<<<<<<<<<<<


                                            -------------------------------------------
                                                      TRANSPORT STEP NO.    1
                                            -------------------------------------------

 TOTAL ELAPSED TIME SINCE BEGINNING OF SIMULATION =   50.00000       d
 .....................................................................

                     CUMMULATIVE MASS BUDGETS AT END OF TRANSPORT STEP    1, TIME STEP    5, STRESS PERIOD    1
                     ------------------------------------------------------------------------------------------

                                                             IN                           OUT
                                                      ----------------             ----------------
                               CONSTANT CONCENTRATION:    0.000000                    0.000000    
                                        CONSTANT HEAD:    0.000000                    0.000000    
                                             RECHARGE:    19338.39                    0.000000    
                                   EVAPOTRANSPIRATION:    0.000000                   0.3464552E-05
                                MASS STORAGE (SOLUTE):   0.7908571E-01               -19335.70    
                            ---------------------------------------------------------------------------
                                              [TOTAL]:    19338.46       mg          -19335.70       mg

                                                          NET (IN - OUT):    2.761719    
                                                   DISCREPANCY (PERCENT):   0.1428198E-01



 >>>>>>>>>>>>>>>>>>>>>>>>>>>>>>>>>>>>>>>>>>>>>>>>>>>>>>>FOR COMPONENT NO. 02<<<<<<<<<<<<<<<<<<<<<<<<<<<<<<<<<<<<<<<<<<<<<<<<<<<<<<<


                                            -------------------------------------------
                                                      TRANSPORT STEP NO.    1
                                            -------------------------------------------

 TOTAL ELAPSED TIME SINCE BEGINNING OF SIMULATION =   50.00000       d
 .....................................................................

                     CUMMULATIVE MASS BUDGETS AT END OF TRANSPORT STEP    1, TIME STEP    5, STRESS PERIOD    1
                     ------------------------------------------------------------------------------------------

                                                             IN                           OUT
                                                      ----------------             ----------------
                               CONSTANT CONCENTRATION:    0.000000                    0.000000    
                                        CONSTANT HEAD:    0.000000                    0.000000    
                                             RECHARGE:    1260.662                    0.000000    
                                   EVAPOTRANSPIRATION:    0.000000                   0.1169270E-06
                                MASS STORAGE (SOLUTE):   0.3348502E-02               -1260.488    
                            ---------------------------------------------------------------------------
                                              [TOTAL]:    1260.665       mg          -1260.488       mg

                                                          NET (IN - OUT):   0.1770020    
                                                   DISCREPANCY (PERCENT):   0.1404135E-01



 >>>>>>>>>>>>>>>>>>>>>>>>>>>>>>>>>>>>>>>>>>>>>>>>>>>>>>>FOR COMPONENT NO. 03<<<<<<<<<<<<<<<<<<<<<<<<<<<<<<<<<<<<<<<<<<<<<<<<<<<<<<<


                                            -------------------------------------------
                                                      TRANSPORT STEP NO.    1
                                            -------------------------------------------

 TOTAL ELAPSED TIME SINCE BEGINNING OF SIMULATION =   50.00000       d
 .....................................................................

                     CUMMULATIVE MASS BUDGETS AT END OF TRANSPORT STEP    1, TIME STEP    5, STRESS PERIOD    1
                     ------------------------------------------------------------------------------------------

                                                             IN                           OUT
                                                      ----------------             ----------------
                               CONSTANT CONCENTRATION:    0.000000                    0.000000    
                                        CONSTANT HEAD:    0.000000                    0.000000    
                                             RECHARGE:    54.08588                    0.000000    
                                   EVAPOTRANSPIRATION:    0.000000                   0.2298549E-07
                                MASS STORAGE (SOLUTE):   0.9927675E-03               -54.07800    
                            ---------------------------------------------------------------------------
                                              [TOTAL]:    54.08688       mg          -54.07800       mg

                                                          NET (IN - OUT):   0.8876801E-02
                                                   DISCREPANCY (PERCENT):   0.1641346E-01


                                          ================================================
                                                         TIME STEP NO.  006
                                          ================================================

 FROM TIME =   50.000     TO    60.000    



     1 CALLS TO GCG PACKAGE FOR TRANSPORT TIME STEP   1 IN FLOW TIME STEP   6 STRESS PERIOD   1
     4 TOTAL ITERATIONS
  MAXIMUM CONCENTRATION CHANGES FOR EACH ITERATION:
  MAX. CHANGE LAYER,ROW,COL MAX. CHANGE LAYER,ROW,COL MAX. CHANGE LAYER,ROW,COL MAX. CHANGE LAYER,ROW,COL MAX. CHANGE LAYER,ROW,COL
 ------------------------------------------------------------------------------------------------------------------------------------
   0.2002     (  1,211,124)  0.1220E-01 (  1,208,125)  0.8108E-03 (  1,207,125)  0.7294E-04 (  1,208,127)


     1 CALLS TO GCG PACKAGE FOR TRANSPORT TIME STEP   1 IN FLOW TIME STEP   6 STRESS PERIOD   1
     4 TOTAL ITERATIONS
  MAXIMUM CONCENTRATION CHANGES FOR EACH ITERATION:
  MAX. CHANGE LAYER,ROW,COL MAX. CHANGE LAYER,ROW,COL MAX. CHANGE LAYER,ROW,COL MAX. CHANGE LAYER,ROW,COL MAX. CHANGE LAYER,ROW,COL
 ------------------------------------------------------------------------------------------------------------------------------------
   0.1961     (  1,131,255)  0.1163E-01 (  1,127,255)  0.7146E-03 (  1,134,253)  0.5925E-04 (  1,131,251)


     1 CALLS TO GCG PACKAGE FOR TRANSPORT TIME STEP   1 IN FLOW TIME STEP   6 STRESS PERIOD   1
     4 TOTAL ITERATIONS
  MAXIMUM CONCENTRATION CHANGES FOR EACH ITERATION:
  MAX. CHANGE LAYER,ROW,COL MAX. CHANGE LAYER,ROW,COL MAX. CHANGE LAYER,ROW,COL MAX. CHANGE LAYER,ROW,COL MAX. CHANGE LAYER,ROW,COL
 ------------------------------------------------------------------------------------------------------------------------------------
   0.1973     (  1,191, 53)  0.1252E-01 (  1,192, 53)  0.8517E-03 (  1,194, 53)  0.6320E-04 (  1,188, 55)



 >>>>>>>>>>>>>>>>>>>>>>>>>>>>>>>>>>>>>>>>>>>>>>>>>>>>>>>FOR COMPONENT NO. 01<<<<<<<<<<<<<<<<<<<<<<<<<<<<<<<<<<<<<<<<<<<<<<<<<<<<<<<


                                            -------------------------------------------
                                                      TRANSPORT STEP NO.    1
                                            -------------------------------------------

 TOTAL ELAPSED TIME SINCE BEGINNING OF SIMULATION =   60.00000       d
 .....................................................................

                     CUMMULATIVE MASS BUDGETS AT END OF TRANSPORT STEP    1, TIME STEP    6, STRESS PERIOD    1
                     ------------------------------------------------------------------------------------------

                                                             IN                           OUT
                                                      ----------------             ----------------
                               CONSTANT CONCENTRATION:    0.000000                    0.000000    
                                        CONSTANT HEAD:    0.000000                    0.000000    
                                             RECHARGE:    23206.06                    0.000000    
                                   EVAPOTRANSPIRATION:    0.000000                   0.8565909E-05
                                MASS STORAGE (SOLUTE):   0.1196244                   -23203.28    
                            ---------------------------------------------------------------------------
                                              [TOTAL]:    23206.18       mg          -23203.28       mg

                                                          NET (IN - OUT):    2.904297    
                                                   DISCREPANCY (PERCENT):   0.1251597E-01



 >>>>>>>>>>>>>>>>>>>>>>>>>>>>>>>>>>>>>>>>>>>>>>>>>>>>>>>FOR COMPONENT NO. 02<<<<<<<<<<<<<<<<<<<<<<<<<<<<<<<<<<<<<<<<<<<<<<<<<<<<<<<


                                            -------------------------------------------
                                                      TRANSPORT STEP NO.    1
                                            -------------------------------------------

 TOTAL ELAPSED TIME SINCE BEGINNING OF SIMULATION =   60.00000       d
 .....................................................................

                     CUMMULATIVE MASS BUDGETS AT END OF TRANSPORT STEP    1, TIME STEP    6, STRESS PERIOD    1
                     ------------------------------------------------------------------------------------------

                                                             IN                           OUT
                                                      ----------------             ----------------
                               CONSTANT CONCENTRATION:    0.000000                    0.000000    
                                        CONSTANT HEAD:    0.000000                    0.000000    
                                             RECHARGE:    1512.794                    0.000000    
                                   EVAPOTRANSPIRATION:    0.000000                   0.2804671E-06
                                MASS STORAGE (SOLUTE):   0.5269106E-02               -1512.619    
                            ---------------------------------------------------------------------------
                                              [TOTAL]:    1512.799       mg          -1512.619       mg

                                                          NET (IN - OUT):   0.1800537    
                                                   DISCREPANCY (PERCENT):   0.1190273E-01



 >>>>>>>>>>>>>>>>>>>>>>>>>>>>>>>>>>>>>>>>>>>>>>>>>>>>>>>FOR COMPONENT NO. 03<<<<<<<<<<<<<<<<<<<<<<<<<<<<<<<<<<<<<<<<<<<<<<<<<<<<<<<


                                            -------------------------------------------
                                                      TRANSPORT STEP NO.    1
                                            -------------------------------------------

 TOTAL ELAPSED TIME SINCE BEGINNING OF SIMULATION =   60.00000       d
 .....................................................................

                     CUMMULATIVE MASS BUDGETS AT END OF TRANSPORT STEP    1, TIME STEP    6, STRESS PERIOD    1
                     ------------------------------------------------------------------------------------------

                                                             IN                           OUT
                                                      ----------------             ----------------
                               CONSTANT CONCENTRATION:    0.000000                    0.000000    
                                        CONSTANT HEAD:    0.000000                    0.000000    
                                             RECHARGE:    64.90306                    0.000000    
                                   EVAPOTRANSPIRATION:    0.000000                   0.5666405E-07
                                MASS STORAGE (SOLUTE):   0.1477614E-02               -64.89495    
                            ---------------------------------------------------------------------------
                                              [TOTAL]:    64.90454       mg          -64.89495       mg

                                                          NET (IN - OUT):   0.9590149E-02
                                                   DISCREPANCY (PERCENT):   0.1477687E-01


                                          ================================================
                                                         TIME STEP NO.  007
                                          ================================================

 FROM TIME =   60.000     TO    70.000    



     1 CALLS TO GCG PACKAGE FOR TRANSPORT TIME STEP   1 IN FLOW TIME STEP   7 STRESS PERIOD   1
     4 TOTAL ITERATIONS
  MAXIMUM CONCENTRATION CHANGES FOR EACH ITERATION:
  MAX. CHANGE LAYER,ROW,COL MAX. CHANGE LAYER,ROW,COL MAX. CHANGE LAYER,ROW,COL MAX. CHANGE LAYER,ROW,COL MAX. CHANGE LAYER,ROW,COL
 ------------------------------------------------------------------------------------------------------------------------------------
   0.1656     (  1,211,124)  0.9692E-02 (  1,208,125)  0.6293E-03 (  1,207,125)  0.5072E-04 (  1,213,124)


     1 CALLS TO GCG PACKAGE FOR TRANSPORT TIME STEP   1 IN FLOW TIME STEP   7 STRESS PERIOD   1
     4 TOTAL ITERATIONS
  MAXIMUM CONCENTRATION CHANGES FOR EACH ITERATION:
  MAX. CHANGE LAYER,ROW,COL MAX. CHANGE LAYER,ROW,COL MAX. CHANGE LAYER,ROW,COL MAX. CHANGE LAYER,ROW,COL MAX. CHANGE LAYER,ROW,COL
 ------------------------------------------------------------------------------------------------------------------------------------
   0.1620     (  1,131,255)  0.9244E-02 (  1,127,255)  0.5850E-03 (  1,134,253)  0.4303E-04 (  1,132,250)


     1 CALLS TO GCG PACKAGE FOR TRANSPORT TIME STEP   1 IN FLOW TIME STEP   7 STRESS PERIOD   1
     4 TOTAL ITERATIONS
  MAXIMUM CONCENTRATION CHANGES FOR EACH ITERATION:
  MAX. CHANGE LAYER,ROW,COL MAX. CHANGE LAYER,ROW,COL MAX. CHANGE LAYER,ROW,COL MAX. CHANGE LAYER,ROW,COL MAX. CHANGE LAYER,ROW,COL
 ------------------------------------------------------------------------------------------------------------------------------------
   0.1628     (  1,191, 53)  0.1093E-01 (  1,192, 53)  0.6821E-03 (  1,194, 53)  0.4917E-04 (  1,193, 52)



 >>>>>>>>>>>>>>>>>>>>>>>>>>>>>>>>>>>>>>>>>>>>>>>>>>>>>>>FOR COMPONENT NO. 01<<<<<<<<<<<<<<<<<<<<<<<<<<<<<<<<<<<<<<<<<<<<<<<<<<<<<<<


                                            -------------------------------------------
                                                      TRANSPORT STEP NO.    1
                                            -------------------------------------------

 TOTAL ELAPSED TIME SINCE BEGINNING OF SIMULATION =   70.00000       d
 .....................................................................

                     CUMMULATIVE MASS BUDGETS AT END OF TRANSPORT STEP    1, TIME STEP    7, STRESS PERIOD    1
                     ------------------------------------------------------------------------------------------

                                                             IN                           OUT
                                                      ----------------             ----------------
                               CONSTANT CONCENTRATION:    0.000000                    0.000000    
                                        CONSTANT HEAD:    0.000000                    0.000000    
                                             RECHARGE:    27073.74                    0.000000    
                                   EVAPOTRANSPIRATION:    0.000000                   0.1789631E-04
                                MASS STORAGE (SOLUTE):   0.1689343                   -27070.86    
                            ---------------------------------------------------------------------------
                                              [TOTAL]:    27073.91       mg          -27070.86       mg

                                                          NET (IN - OUT):    3.052734    
                                                   DISCREPANCY (PERCENT):   0.1127619E-01



 >>>>>>>>>>>>>>>>>>>>>>>>>>>>>>>>>>>>>>>>>>>>>>>>>>>>>>>FOR COMPONENT NO. 02<<<<<<<<<<<<<<<<<<<<<<<<<<<<<<<<<<<<<<<<<<<<<<<<<<<<<<<


                                            -------------------------------------------
                                                      TRANSPORT STEP NO.    1
                                            -------------------------------------------

 TOTAL ELAPSED TIME SINCE BEGINNING OF SIMULATION =   70.00000       d
 .....................................................................

                     CUMMULATIVE MASS BUDGETS AT END OF TRANSPORT STEP    1, TIME STEP    7, STRESS PERIOD    1
                     ------------------------------------------------------------------------------------------

                                                             IN                           OUT
                                                      ----------------             ----------------
                               CONSTANT CONCENTRATION:    0.000000                    0.000000    
                                        CONSTANT HEAD:    0.000000                    0.000000    
                                             RECHARGE:    1764.926                    0.000000    
                                   EVAPOTRANSPIRATION:    0.000000                   0.5690801E-06
                                MASS STORAGE (SOLUTE):   0.7681545E-02               -1764.750    
                            ---------------------------------------------------------------------------
                                              [TOTAL]:    1764.934       mg          -1764.750       mg

                                                          NET (IN - OUT):   0.1838379    
                                                   DISCREPANCY (PERCENT):   0.1041668E-01



 >>>>>>>>>>>>>>>>>>>>>>>>>>>>>>>>>>>>>>>>>>>>>>>>>>>>>>>FOR COMPONENT NO. 03<<<<<<<<<<<<<<<<<<<<<<<<<<<<<<<<<<<<<<<<<<<<<<<<<<<<<<<


                                            -------------------------------------------
                                                      TRANSPORT STEP NO.    1
                                            -------------------------------------------

 TOTAL ELAPSED TIME SINCE BEGINNING OF SIMULATION =   70.00000       d
 .....................................................................

                     CUMMULATIVE MASS BUDGETS AT END OF TRANSPORT STEP    1, TIME STEP    7, STRESS PERIOD    1
                     ------------------------------------------------------------------------------------------

                                                             IN                           OUT
                                                      ----------------             ----------------
                               CONSTANT CONCENTRATION:    0.000000                    0.000000    
                                        CONSTANT HEAD:    0.000000                    0.000000    
                                             RECHARGE:    75.72024                    0.000000    
                                   EVAPOTRANSPIRATION:    0.000000                   0.1188564E-06
                                MASS STORAGE (SOLUTE):   0.2022131E-02               -75.71194    
                            ---------------------------------------------------------------------------
                                              [TOTAL]:    75.72226       mg          -75.71194       mg

                                                          NET (IN - OUT):   0.1031494E-01
                                                   DISCREPANCY (PERCENT):   0.1362300E-01


                                          ================================================
                                                         TIME STEP NO.  008
                                          ================================================

 FROM TIME =   70.000     TO    80.000    



     1 CALLS TO GCG PACKAGE FOR TRANSPORT TIME STEP   1 IN FLOW TIME STEP   8 STRESS PERIOD   1
     4 TOTAL ITERATIONS
  MAXIMUM CONCENTRATION CHANGES FOR EACH ITERATION:
  MAX. CHANGE LAYER,ROW,COL MAX. CHANGE LAYER,ROW,COL MAX. CHANGE LAYER,ROW,COL MAX. CHANGE LAYER,ROW,COL MAX. CHANGE LAYER,ROW,COL
 ------------------------------------------------------------------------------------------------------------------------------------
   0.1409     (  1,211,124)  0.8015E-02 (  1,208,125)  0.5126E-03 (  1,207,125)  0.3916E-04 (  1,213,123)


     1 CALLS TO GCG PACKAGE FOR TRANSPORT TIME STEP   1 IN FLOW TIME STEP   8 STRESS PERIOD   1
     4 TOTAL ITERATIONS
  MAXIMUM CONCENTRATION CHANGES FOR EACH ITERATION:
  MAX. CHANGE LAYER,ROW,COL MAX. CHANGE LAYER,ROW,COL MAX. CHANGE LAYER,ROW,COL MAX. CHANGE LAYER,ROW,COL MAX. CHANGE LAYER,ROW,COL
 ------------------------------------------------------------------------------------------------------------------------------------
   0.1377     (  1,131,255)  0.7626E-02 (  1,127,255)  0.4853E-03 (  1,134,253)  0.3692E-04 (  1,132,250)


     1 CALLS TO GCG PACKAGE FOR TRANSPORT TIME STEP   1 IN FLOW TIME STEP   8 STRESS PERIOD   1
     4 TOTAL ITERATIONS
  MAXIMUM CONCENTRATION CHANGES FOR EACH ITERATION:
  MAX. CHANGE LAYER,ROW,COL MAX. CHANGE LAYER,ROW,COL MAX. CHANGE LAYER,ROW,COL MAX. CHANGE LAYER,ROW,COL MAX. CHANGE LAYER,ROW,COL
 ------------------------------------------------------------------------------------------------------------------------------------
   0.1380     (  1,191, 53)  0.9660E-02 (  1,192, 53)  0.5542E-03 (  1,194, 53)  0.3809E-04 (  1,193, 52)



 >>>>>>>>>>>>>>>>>>>>>>>>>>>>>>>>>>>>>>>>>>>>>>>>>>>>>>>FOR COMPONENT NO. 01<<<<<<<<<<<<<<<<<<<<<<<<<<<<<<<<<<<<<<<<<<<<<<<<<<<<<<<


                                            -------------------------------------------
                                                      TRANSPORT STEP NO.    1
                                            -------------------------------------------

 TOTAL ELAPSED TIME SINCE BEGINNING OF SIMULATION =   80.00000       d
 .....................................................................

                     CUMMULATIVE MASS BUDGETS AT END OF TRANSPORT STEP    1, TIME STEP    8, STRESS PERIOD    1
                     ------------------------------------------------------------------------------------------

                                                             IN                           OUT
                                                      ----------------             ----------------
                               CONSTANT CONCENTRATION:    0.000000                    0.000000    
                                        CONSTANT HEAD:    0.000000                    0.000000    
                                             RECHARGE:    30941.42                    0.000000    
                                   EVAPOTRANSPIRATION:    0.000000                   0.3324109E-04
                                MASS STORAGE (SOLUTE):   0.2240200                   -30938.43    
                            ---------------------------------------------------------------------------
                                              [TOTAL]:    30941.64       mg          -30938.43       mg

                                                          NET (IN - OUT):    3.210938    
                                                   DISCREPANCY (PERCENT):   0.1037794E-01



 >>>>>>>>>>>>>>>>>>>>>>>>>>>>>>>>>>>>>>>>>>>>>>>>>>>>>>>FOR COMPONENT NO. 02<<<<<<<<<<<<<<<<<<<<<<<<<<<<<<<<<<<<<<<<<<<<<<<<<<<<<<<


                                            -------------------------------------------
                                                      TRANSPORT STEP NO.    1
                                            -------------------------------------------

 TOTAL ELAPSED TIME SINCE BEGINNING OF SIMULATION =   80.00000       d
 .....................................................................

                     CUMMULATIVE MASS BUDGETS AT END OF TRANSPORT STEP    1, TIME STEP    8, STRESS PERIOD    1
                     ------------------------------------------------------------------------------------------

                                                             IN                           OUT
                                                      ----------------             ----------------
                               CONSTANT CONCENTRATION:    0.000000                    0.000000    
                                        CONSTANT HEAD:    0.000000                    0.000000    
                                             RECHARGE:    2017.059                    0.000000    
                                   EVAPOTRANSPIRATION:    0.000000                   0.1027421E-05
                                MASS STORAGE (SOLUTE):   0.1057145E-01               -2016.882    
                            ---------------------------------------------------------------------------
                                              [TOTAL]:    2017.069       mg          -2016.882       mg

                                                          NET (IN - OUT):   0.1877441    
                                                   DISCREPANCY (PERCENT):   0.9308201E-02



 >>>>>>>>>>>>>>>>>>>>>>>>>>>>>>>>>>>>>>>>>>>>>>>>>>>>>>>FOR COMPONENT NO. 03<<<<<<<<<<<<<<<<<<<<<<<<<<<<<<<<<<<<<<<<<<<<<<<<<<<<<<<


                                            -------------------------------------------
                                                      TRANSPORT STEP NO.    1
                                            -------------------------------------------

 TOTAL ELAPSED TIME SINCE BEGINNING OF SIMULATION =   80.00000       d
 .....................................................................

                     CUMMULATIVE MASS BUDGETS AT END OF TRANSPORT STEP    1, TIME STEP    8, STRESS PERIOD    1
                     ------------------------------------------------------------------------------------------

                                                             IN                           OUT
                                                      ----------------             ----------------
                               CONSTANT CONCENTRATION:    0.000000                    0.000000    
                                        CONSTANT HEAD:    0.000000                    0.000000    
                                             RECHARGE:    86.53741                    0.000000    
                                   EVAPOTRANSPIRATION:    0.000000                   0.2220463E-06
                                MASS STORAGE (SOLUTE):   0.2607164E-02               -86.52898    
                            ---------------------------------------------------------------------------
                                              [TOTAL]:    86.54002       mg          -86.52898       mg

                                                          NET (IN - OUT):   0.1104736E-01
                                                   DISCREPANCY (PERCENT):   0.1276643E-01


                                          ================================================
                                                         TIME STEP NO.  009
                                          ================================================

 FROM TIME =   80.000     TO    90.000    



     1 CALLS TO GCG PACKAGE FOR TRANSPORT TIME STEP   1 IN FLOW TIME STEP   9 STRESS PERIOD   1
     4 TOTAL ITERATIONS
  MAXIMUM CONCENTRATION CHANGES FOR EACH ITERATION:
  MAX. CHANGE LAYER,ROW,COL MAX. CHANGE LAYER,ROW,COL MAX. CHANGE LAYER,ROW,COL MAX. CHANGE LAYER,ROW,COL MAX. CHANGE LAYER,ROW,COL
 ------------------------------------------------------------------------------------------------------------------------------------
   0.1223     (  1,211,124)  0.7007E-02 (  1,212,124)  0.4324E-03 (  1,207,125)  0.3195E-04 (  1,213,123)


     1 CALLS TO GCG PACKAGE FOR TRANSPORT TIME STEP   1 IN FLOW TIME STEP   9 STRESS PERIOD   1
     4 TOTAL ITERATIONS
  MAXIMUM CONCENTRATION CHANGES FOR EACH ITERATION:
  MAX. CHANGE LAYER,ROW,COL MAX. CHANGE LAYER,ROW,COL MAX. CHANGE LAYER,ROW,COL MAX. CHANGE LAYER,ROW,COL MAX. CHANGE LAYER,ROW,COL
 ------------------------------------------------------------------------------------------------------------------------------------
   0.1194     (  1,131,255)  0.6492E-02 (  1,131,254)  0.4076E-03 (  1,134,253)  0.3175E-04 (  1,132,250)


     1 CALLS TO GCG PACKAGE FOR TRANSPORT TIME STEP   1 IN FLOW TIME STEP   9 STRESS PERIOD   1
     4 TOTAL ITERATIONS
  MAXIMUM CONCENTRATION CHANGES FOR EACH ITERATION:
  MAX. CHANGE LAYER,ROW,COL MAX. CHANGE LAYER,ROW,COL MAX. CHANGE LAYER,ROW,COL MAX. CHANGE LAYER,ROW,COL MAX. CHANGE LAYER,ROW,COL
 ------------------------------------------------------------------------------------------------------------------------------------
   0.1194     (  1,191, 53)  0.8622E-02 (  1,192, 53)  0.4570E-03 (  1,194, 53)  0.2879E-04 (  1,193, 52)



 >>>>>>>>>>>>>>>>>>>>>>>>>>>>>>>>>>>>>>>>>>>>>>>>>>>>>>>FOR COMPONENT NO. 01<<<<<<<<<<<<<<<<<<<<<<<<<<<<<<<<<<<<<<<<<<<<<<<<<<<<<<<


                                            -------------------------------------------
                                                      TRANSPORT STEP NO.    1
                                            -------------------------------------------

 TOTAL ELAPSED TIME SINCE BEGINNING OF SIMULATION =   90.00000       d
 .....................................................................

                     CUMMULATIVE MASS BUDGETS AT END OF TRANSPORT STEP    1, TIME STEP    9, STRESS PERIOD    1
                     ------------------------------------------------------------------------------------------

                                                             IN                           OUT
                                                      ----------------             ----------------
                               CONSTANT CONCENTRATION:    0.000000                    0.000000    
                                        CONSTANT HEAD:    0.000000                    0.000000    
                                             RECHARGE:    34809.10                    0.000000    
                                   EVAPOTRANSPIRATION:    0.000000                   0.5655360E-04
                                MASS STORAGE (SOLUTE):   0.2819052                   -34806.01    
                            ---------------------------------------------------------------------------
                                              [TOTAL]:    34809.38       mg          -34806.01       mg

                                                          NET (IN - OUT):    3.367188    
                                                   DISCREPANCY (PERCENT):   0.9673687E-02



 >>>>>>>>>>>>>>>>>>>>>>>>>>>>>>>>>>>>>>>>>>>>>>>>>>>>>>>FOR COMPONENT NO. 02<<<<<<<<<<<<<<<<<<<<<<<<<<<<<<<<<<<<<<<<<<<<<<<<<<<<<<<


                                            -------------------------------------------
                                                      TRANSPORT STEP NO.    1
                                            -------------------------------------------

 TOTAL ELAPSED TIME SINCE BEGINNING OF SIMULATION =   90.00000       d
 .....................................................................

                     CUMMULATIVE MASS BUDGETS AT END OF TRANSPORT STEP    1, TIME STEP    9, STRESS PERIOD    1
                     ------------------------------------------------------------------------------------------

                                                             IN                           OUT
                                                      ----------------             ----------------
                               CONSTANT CONCENTRATION:    0.000000                    0.000000    
                                        CONSTANT HEAD:    0.000000                    0.000000    
                                             RECHARGE:    2269.191                    0.000000    
                                   EVAPOTRANSPIRATION:    0.000000                   0.1699612E-05
                                MASS STORAGE (SOLUTE):   0.1398743E-01               -2269.013    
                            ---------------------------------------------------------------------------
                                              [TOTAL]:    2269.205       mg          -2269.013       mg

                                                          NET (IN - OUT):   0.1921387    
                                                   DISCREPANCY (PERCENT):   0.8467583E-02



 >>>>>>>>>>>>>>>>>>>>>>>>>>>>>>>>>>>>>>>>>>>>>>>>>>>>>>>FOR COMPONENT NO. 03<<<<<<<<<<<<<<<<<<<<<<<<<<<<<<<<<<<<<<<<<<<<<<<<<<<<<<<


                                            -------------------------------------------
                                                      TRANSPORT STEP NO.    1
                                            -------------------------------------------

 TOTAL ELAPSED TIME SINCE BEGINNING OF SIMULATION =   90.00000       d
 .....................................................................

                     CUMMULATIVE MASS BUDGETS AT END OF TRANSPORT STEP    1, TIME STEP    9, STRESS PERIOD    1
                     ------------------------------------------------------------------------------------------

                                                             IN                           OUT
                                                      ----------------             ----------------
                               CONSTANT CONCENTRATION:    0.000000                    0.000000    
                                        CONSTANT HEAD:    0.000000                    0.000000    
                                             RECHARGE:    97.35459                    0.000000    
                                   EVAPOTRANSPIRATION:    0.000000                   0.3800386E-06
                                MASS STORAGE (SOLUTE):   0.3249526E-02               -97.34606    
                            ---------------------------------------------------------------------------
                                              [TOTAL]:    97.35784       mg          -97.34606       mg

                                                          NET (IN - OUT):   0.1177979E-01
                                                   DISCREPANCY (PERCENT):   0.1210020E-01


                                          ================================================
                                                         TIME STEP NO.  010
                                          ================================================

 FROM TIME =   90.000     TO    100.00    



     1 CALLS TO GCG PACKAGE FOR TRANSPORT TIME STEP   1 IN FLOW TIME STEP  10 STRESS PERIOD   1
     4 TOTAL ITERATIONS
  MAXIMUM CONCENTRATION CHANGES FOR EACH ITERATION:
  MAX. CHANGE LAYER,ROW,COL MAX. CHANGE LAYER,ROW,COL MAX. CHANGE LAYER,ROW,COL MAX. CHANGE LAYER,ROW,COL MAX. CHANGE LAYER,ROW,COL
 ------------------------------------------------------------------------------------------------------------------------------------
   0.1078     (  1,211,124)  0.6267E-02 (  1,212,124)  0.3745E-03 (  1,207,125)  0.2664E-04 (  1,213,126)


     1 CALLS TO GCG PACKAGE FOR TRANSPORT TIME STEP   1 IN FLOW TIME STEP  10 STRESS PERIOD   1
     4 TOTAL ITERATIONS
  MAXIMUM CONCENTRATION CHANGES FOR EACH ITERATION:
  MAX. CHANGE LAYER,ROW,COL MAX. CHANGE LAYER,ROW,COL MAX. CHANGE LAYER,ROW,COL MAX. CHANGE LAYER,ROW,COL MAX. CHANGE LAYER,ROW,COL
 ------------------------------------------------------------------------------------------------------------------------------------
   0.1053     (  1,131,255)  0.5778E-02 (  1,131,254)  0.3467E-03 (  1,134,253)  0.2749E-04 (  1,132,250)


     1 CALLS TO GCG PACKAGE FOR TRANSPORT TIME STEP   1 IN FLOW TIME STEP  10 STRESS PERIOD   1
     4 TOTAL ITERATIONS
  MAXIMUM CONCENTRATION CHANGES FOR EACH ITERATION:
  MAX. CHANGE LAYER,ROW,COL MAX. CHANGE LAYER,ROW,COL MAX. CHANGE LAYER,ROW,COL MAX. CHANGE LAYER,ROW,COL MAX. CHANGE LAYER,ROW,COL
 ------------------------------------------------------------------------------------------------------------------------------------
   0.1049     (  1,191, 53)  0.7763E-02 (  1,192, 53)  0.3829E-03 (  1,194, 53)  0.2227E-04 (  1,192, 50)



 >>>>>>>>>>>>>>>>>>>>>>>>>>>>>>>>>>>>>>>>>>>>>>>>>>>>>>>FOR COMPONENT NO. 01<<<<<<<<<<<<<<<<<<<<<<<<<<<<<<<<<<<<<<<<<<<<<<<<<<<<<<<


                                            -------------------------------------------
                                                      TRANSPORT STEP NO.    1
                                            -------------------------------------------

 TOTAL ELAPSED TIME SINCE BEGINNING OF SIMULATION =   100.0000       d
 .....................................................................

                     CUMMULATIVE MASS BUDGETS AT END OF TRANSPORT STEP    1, TIME STEP   10, STRESS PERIOD    1
                     ------------------------------------------------------------------------------------------

                                                             IN                           OUT
                                                      ----------------             ----------------
                               CONSTANT CONCENTRATION:    0.000000                    0.000000    
                                        CONSTANT HEAD:    0.000000                    0.000000    
                                             RECHARGE:    38676.77                    0.000000    
                                   EVAPOTRANSPIRATION:    0.000000                   0.8985345E-04
                                MASS STORAGE (SOLUTE):   0.3443342                   -38673.59    
                            ---------------------------------------------------------------------------
                                              [TOTAL]:    38677.12       mg          -38673.59       mg

                                                          NET (IN - OUT):    3.523438    
                                                   DISCREPANCY (PERCENT):   0.9110291E-02



 >>>>>>>>>>>>>>>>>>>>>>>>>>>>>>>>>>>>>>>>>>>>>>>>>>>>>>>FOR COMPONENT NO. 02<<<<<<<<<<<<<<<<<<<<<<<<<<<<<<<<<<<<<<<<<<<<<<<<<<<<<<<


                                            -------------------------------------------
                                                      TRANSPORT STEP NO.    1
                                            -------------------------------------------

 TOTAL ELAPSED TIME SINCE BEGINNING OF SIMULATION =   100.0000       d
 .....................................................................

                     CUMMULATIVE MASS BUDGETS AT END OF TRANSPORT STEP    1, TIME STEP   10, STRESS PERIOD    1
                     ------------------------------------------------------------------------------------------

                                                             IN                           OUT
                                                      ----------------             ----------------
                               CONSTANT CONCENTRATION:    0.000000                    0.000000    
                                        CONSTANT HEAD:    0.000000                    0.000000    
                                             RECHARGE:    2521.323                    0.000000    
                                   EVAPOTRANSPIRATION:    0.000000                   0.2624910E-05
                                MASS STORAGE (SOLUTE):   0.1791137E-01               -2521.145    
                            ---------------------------------------------------------------------------
                                              [TOTAL]:    2521.341       mg          -2521.145       mg

                                                          NET (IN - OUT):   0.1967773    
                                                   DISCREPANCY (PERCENT):   0.7804775E-02



 >>>>>>>>>>>>>>>>>>>>>>>>>>>>>>>>>>>>>>>>>>>>>>>>>>>>>>>FOR COMPONENT NO. 03<<<<<<<<<<<<<<<<<<<<<<<<<<<<<<<<<<<<<<<<<<<<<<<<<<<<<<<


                                            -------------------------------------------
                                                      TRANSPORT STEP NO.    1
                                            -------------------------------------------

 TOTAL ELAPSED TIME SINCE BEGINNING OF SIMULATION =   100.0000       d
 .....................................................................

                     CUMMULATIVE MASS BUDGETS AT END OF TRANSPORT STEP    1, TIME STEP   10, STRESS PERIOD    1
                     ------------------------------------------------------------------------------------------

                                                             IN                           OUT
                                                      ----------------             ----------------
                               CONSTANT CONCENTRATION:    0.000000                    0.000000    
                                        CONSTANT HEAD:    0.000000                    0.000000    
                                             RECHARGE:    108.1718                    0.000000    
                                   EVAPOTRANSPIRATION:    0.000000                   0.6073734E-06
                                MASS STORAGE (SOLUTE):   0.3917340E-02               -108.1632    
                            ---------------------------------------------------------------------------
                                              [TOTAL]:    108.1757       mg          -108.1632       mg

                                                          NET (IN - OUT):   0.1249695E-01
                                                   DISCREPANCY (PERCENT):   0.1155312E-01


                                   ++++++++++++++++++++++++++++++++++++++++++++++++++++++++++++++
                                                       STRESS PERIOD NO.  002
                                   ++++++++++++++++++++++++++++++++++++++++++++++++++++++++++++++


 LENGTH OF CURRENT STRESS PERIOD =   900.0000    
 NUMBER OF TIME STEPS FOR CURRENT STRESS PERIOD =   10
 TIME STEP MULTIPLIER USED IN FLOW SOLUTION =   1.000000    

 ***Type of Transport Simulation is TRANSIENT

 USER-SPECIFIED TRANSPORT STEPSIZE =   0.000000       d
 MAXIMUM NUMBER OF TRANSPORT STEPS ALLOWED  IN ONE FLOW TIME STEP =      1000
 MULTIPLIER FOR SUCCESSIVE TRANSPORT STEPS  [USED IN IMPLICIT SCHEMES] =     1.000
 MAXIMUM TRANSPORT STEP SIZE  [USED IN IMPLICIT SCHEMES] =   0.000000       d

 CONCENTRATION OF RECHARGE FLUXES REUSED FROM LAST STRESS PERIOD

 CONCENTRATION OF E. T. FLUXES REUSED FROM LAST STRESS PERIOD

 NO. OF POINT SINKS/SOURCES OF SPECIFIED CONCONCENTRATIONS =    0 IN STRESS PERIOD  2


                                          ================================================
                                                         TIME STEP NO.  001
                                          ================================================

 FROM TIME =   100.00     TO    190.00    



     1 CALLS TO GCG PACKAGE FOR TRANSPORT TIME STEP   1 IN FLOW TIME STEP   1 STRESS PERIOD   2
    11 TOTAL ITERATIONS
  MAXIMUM CONCENTRATION CHANGES FOR EACH ITERATION:
  MAX. CHANGE LAYER,ROW,COL MAX. CHANGE LAYER,ROW,COL MAX. CHANGE LAYER,ROW,COL MAX. CHANGE LAYER,ROW,COL MAX. CHANGE LAYER,ROW,COL
 ------------------------------------------------------------------------------------------------------------------------------------
   0.8632     (  1,211,124)  0.1740     (  1,214,124)  0.5118E-01 (  1,207,124)  0.2085E-01 (  1,208,125)  0.8016E-02 (  1,215,124)
   0.2328E-02 (  1,214,126)  0.8489E-03 (  1,211,130)  0.4375E-03 (  1,216,124)  0.2577E-03 (  1,209,126)  0.1141E-03 (  1,208,126)
   0.3469E-04 (  1,131,257)


     1 CALLS TO GCG PACKAGE FOR TRANSPORT TIME STEP   1 IN FLOW TIME STEP   1 STRESS PERIOD   2
    10 TOTAL ITERATIONS
  MAXIMUM CONCENTRATION CHANGES FOR EACH ITERATION:
  MAX. CHANGE LAYER,ROW,COL MAX. CHANGE LAYER,ROW,COL MAX. CHANGE LAYER,ROW,COL MAX. CHANGE LAYER,ROW,COL MAX. CHANGE LAYER,ROW,COL
 ------------------------------------------------------------------------------------------------------------------------------------
   0.9164     (  1,131,254)  0.2043     (  1,131,254)  0.5064E-01 (  1,126,254)  0.1838E-01 (  1,127,256)  0.5680E-02 (  1,131,254)
   0.2018E-02 (  1,133,251)  0.7164E-03 (  1,127,253)  0.3257E-03 (  1,128,253)  0.1659E-03 (  1,128,255)  0.5752E-04 (  1,127,255)


     1 CALLS TO GCG PACKAGE FOR TRANSPORT TIME STEP   1 IN FLOW TIME STEP   1 STRESS PERIOD   2
    10 TOTAL ITERATIONS
  MAXIMUM CONCENTRATION CHANGES FOR EACH ITERATION:
  MAX. CHANGE LAYER,ROW,COL MAX. CHANGE LAYER,ROW,COL MAX. CHANGE LAYER,ROW,COL MAX. CHANGE LAYER,ROW,COL MAX. CHANGE LAYER,ROW,COL
 ------------------------------------------------------------------------------------------------------------------------------------
   0.8471     (  1,192, 53)  0.1757     (  1,192, 53)  0.4204E-01 (  1,187, 53)  0.1852E-01 (  1,192, 53)  0.5829E-02 (  1,195, 53)
   0.2346E-02 (  1,192, 53)  0.7263E-03 (  1,192, 55)  0.3059E-03 (  2,190, 54)  0.1393E-03 (  2,191, 53)  0.7202E-04 (  1,192, 57)



 >>>>>>>>>>>>>>>>>>>>>>>>>>>>>>>>>>>>>>>>>>>>>>>>>>>>>>>FOR COMPONENT NO. 01<<<<<<<<<<<<<<<<<<<<<<<<<<<<<<<<<<<<<<<<<<<<<<<<<<<<<<<


                                            -------------------------------------------
                                                      TRANSPORT STEP NO.    1
                                            -------------------------------------------

 TOTAL ELAPSED TIME SINCE BEGINNING OF SIMULATION =   190.0000       d
 .....................................................................

                     CUMMULATIVE MASS BUDGETS AT END OF TRANSPORT STEP    1, TIME STEP    1, STRESS PERIOD    2
                     ------------------------------------------------------------------------------------------

                                                             IN                           OUT
                                                      ----------------             ----------------
                               CONSTANT CONCENTRATION:    0.000000                    0.000000    
                                        CONSTANT HEAD:    0.000000                    0.000000    
                                             RECHARGE:    73485.86                    0.000000    
                                   EVAPOTRANSPIRATION:    0.000000                   0.8985630E-04
                                MASS STORAGE (SOLUTE):   0.4184125                   -73481.05    
                            ---------------------------------------------------------------------------
                                              [TOTAL]:    73486.28       mg          -73481.05       mg

                                                          NET (IN - OUT):    5.234375    
                                                   DISCREPANCY (PERCENT):   0.7123182E-02



 >>>>>>>>>>>>>>>>>>>>>>>>>>>>>>>>>>>>>>>>>>>>>>>>>>>>>>>FOR COMPONENT NO. 02<<<<<<<<<<<<<<<<<<<<<<<<<<<<<<<<<<<<<<<<<<<<<<<<<<<<<<<


                                            -------------------------------------------
                                                      TRANSPORT STEP NO.    1
                                            -------------------------------------------

 TOTAL ELAPSED TIME SINCE BEGINNING OF SIMULATION =   190.0000       d
 .....................................................................

                     CUMMULATIVE MASS BUDGETS AT END OF TRANSPORT STEP    1, TIME STEP    1, STRESS PERIOD    2
                     ------------------------------------------------------------------------------------------

                                                             IN                           OUT
                                                      ----------------             ----------------
                               CONSTANT CONCENTRATION:    0.000000                    0.000000    
                                        CONSTANT HEAD:    0.000000                    0.000000    
                                             RECHARGE:    4790.517                    0.000000    
                                   EVAPOTRANSPIRATION:    0.000000                   0.2624916E-05
                                MASS STORAGE (SOLUTE):   0.2458424E-01               -4790.162    
                            ---------------------------------------------------------------------------
                                              [TOTAL]:    4790.541       mg          -4790.162       mg

                                                          NET (IN - OUT):   0.3793945    
                                                   DISCREPANCY (PERCENT):   0.7919973E-02



 >>>>>>>>>>>>>>>>>>>>>>>>>>>>>>>>>>>>>>>>>>>>>>>>>>>>>>>FOR COMPONENT NO. 03<<<<<<<<<<<<<<<<<<<<<<<<<<<<<<<<<<<<<<<<<<<<<<<<<<<<<<<


                                            -------------------------------------------
                                                      TRANSPORT STEP NO.    1
                                            -------------------------------------------

 TOTAL ELAPSED TIME SINCE BEGINNING OF SIMULATION =   190.0000       d
 .....................................................................

                     CUMMULATIVE MASS BUDGETS AT END OF TRANSPORT STEP    1, TIME STEP    1, STRESS PERIOD    2
                     ------------------------------------------------------------------------------------------

                                                             IN                           OUT
                                                      ----------------             ----------------
                               CONSTANT CONCENTRATION:    0.000000                    0.000000    
                                        CONSTANT HEAD:    0.000000                    0.000000    
                                             RECHARGE:    205.5263                    0.000000    
                                   EVAPOTRANSPIRATION:    0.000000                   0.6073761E-06
                                MASS STORAGE (SOLUTE):   0.3919723E-02               -205.5020    
                            ---------------------------------------------------------------------------
                                              [TOTAL]:    205.5303       mg          -205.5020       mg

                                                          NET (IN - OUT):   0.2827454E-01
                                                   DISCREPANCY (PERCENT):   0.1375782E-01


                                          ================================================
                                                         TIME STEP NO.  002
                                          ================================================

 FROM TIME =   190.00     TO    280.00    



     1 CALLS TO GCG PACKAGE FOR TRANSPORT TIME STEP   1 IN FLOW TIME STEP   2 STRESS PERIOD   2
    10 TOTAL ITERATIONS
  MAXIMUM CONCENTRATION CHANGES FOR EACH ITERATION:
  MAX. CHANGE LAYER,ROW,COL MAX. CHANGE LAYER,ROW,COL MAX. CHANGE LAYER,ROW,COL MAX. CHANGE LAYER,ROW,COL MAX. CHANGE LAYER,ROW,COL
 ------------------------------------------------------------------------------------------------------------------------------------
   0.4248     (  1,211,124)  0.8970E-01 (  1,214,124)  0.2790E-01 (  1,209,125)  0.1346E-01 (  1,208,125)  0.4250E-02 (  1,215,124)
   0.1404E-02 (  1,214,126)  0.5701E-03 (  1,212,122)  0.2852E-03 (  1,209,127)  0.1613E-03 (  1,209,126)  0.6318E-04 (  1,216,124)


     1 CALLS TO GCG PACKAGE FOR TRANSPORT TIME STEP   1 IN FLOW TIME STEP   2 STRESS PERIOD   2
     9 TOTAL ITERATIONS
  MAXIMUM CONCENTRATION CHANGES FOR EACH ITERATION:
  MAX. CHANGE LAYER,ROW,COL MAX. CHANGE LAYER,ROW,COL MAX. CHANGE LAYER,ROW,COL MAX. CHANGE LAYER,ROW,COL MAX. CHANGE LAYER,ROW,COL
 ------------------------------------------------------------------------------------------------------------------------------------
   0.4659     (  1,131,254)  0.1040     (  1,131,254)  0.2738E-01 (  1,126,254)  0.1085E-01 (  1,127,256)  0.3157E-02 (  1,135,253)
   0.1035E-02 (  1,133,251)  0.4027E-03 (  1,188, 54)  0.2186E-03 (  1,127,255)  0.9763E-04 (  1,128,255)


     1 CALLS TO GCG PACKAGE FOR TRANSPORT TIME STEP   1 IN FLOW TIME STEP   2 STRESS PERIOD   2
     9 TOTAL ITERATIONS
  MAXIMUM CONCENTRATION CHANGES FOR EACH ITERATION:
  MAX. CHANGE LAYER,ROW,COL MAX. CHANGE LAYER,ROW,COL MAX. CHANGE LAYER,ROW,COL MAX. CHANGE LAYER,ROW,COL MAX. CHANGE LAYER,ROW,COL
 ------------------------------------------------------------------------------------------------------------------------------------
   0.4168     (  1,192, 53)  0.8848E-01 (  1,192, 53)  0.2404E-01 (  1,189, 55)  0.1101E-01 (  1,192, 53)  0.3402E-02 (  1,195, 53)
   0.1575E-02 (  1,192, 53)  0.4544E-03 (  1,192, 55)  0.2013E-03 (  2,190, 53)  0.9584E-04 (  1,189, 54)



 >>>>>>>>>>>>>>>>>>>>>>>>>>>>>>>>>>>>>>>>>>>>>>>>>>>>>>>FOR COMPONENT NO. 01<<<<<<<<<<<<<<<<<<<<<<<<<<<<<<<<<<<<<<<<<<<<<<<<<<<<<<<


                                            -------------------------------------------
                                                      TRANSPORT STEP NO.    1
                                            -------------------------------------------

 TOTAL ELAPSED TIME SINCE BEGINNING OF SIMULATION =   280.0000       d
 .....................................................................

                     CUMMULATIVE MASS BUDGETS AT END OF TRANSPORT STEP    1, TIME STEP    2, STRESS PERIOD    2
                     ------------------------------------------------------------------------------------------

                                                             IN                           OUT
                                                      ----------------             ----------------
                               CONSTANT CONCENTRATION:    0.000000                    0.000000    
                                        CONSTANT HEAD:    0.000000                    0.000000    
                                             RECHARGE:    108294.9                    0.000000    
                                   EVAPOTRANSPIRATION:    0.000000                   0.9282838E-04
                                MASS STORAGE (SOLUTE):   0.7168299                   -108287.3    
                            ---------------------------------------------------------------------------
                                              [TOTAL]:    108295.7       mg          -108287.3       mg

                                                          NET (IN - OUT):    8.343750    
                                                   DISCREPANCY (PERCENT):   0.7704900E-02



 >>>>>>>>>>>>>>>>>>>>>>>>>>>>>>>>>>>>>>>>>>>>>>>>>>>>>>>FOR COMPONENT NO. 02<<<<<<<<<<<<<<<<<<<<<<<<<<<<<<<<<<<<<<<<<<<<<<<<<<<<<<<


                                            -------------------------------------------
                                                      TRANSPORT STEP NO.    1
                                            -------------------------------------------

 TOTAL ELAPSED TIME SINCE BEGINNING OF SIMULATION =   280.0000       d
 .....................................................................

                     CUMMULATIVE MASS BUDGETS AT END OF TRANSPORT STEP    1, TIME STEP    2, STRESS PERIOD    2
                     ------------------------------------------------------------------------------------------

                                                             IN                           OUT
                                                      ----------------             ----------------
                               CONSTANT CONCENTRATION:    0.000000                    0.000000    
                                        CONSTANT HEAD:    0.000000                    0.000000    
                                             RECHARGE:    7059.710                    0.000000    
                                   EVAPOTRANSPIRATION:    0.000000                   0.2767790E-05
                                MASS STORAGE (SOLUTE):   0.5143196E-01               -7058.891    
                            ---------------------------------------------------------------------------
                                              [TOTAL]:    7059.761       mg          -7058.891       mg

                                                          NET (IN - OUT):   0.8701172    
                                                   DISCREPANCY (PERCENT):   0.1232578E-01



 >>>>>>>>>>>>>>>>>>>>>>>>>>>>>>>>>>>>>>>>>>>>>>>>>>>>>>>FOR COMPONENT NO. 03<<<<<<<<<<<<<<<<<<<<<<<<<<<<<<<<<<<<<<<<<<<<<<<<<<<<<<<


                                            -------------------------------------------
                                                      TRANSPORT STEP NO.    1
                                            -------------------------------------------

 TOTAL ELAPSED TIME SINCE BEGINNING OF SIMULATION =   280.0000       d
 .....................................................................

                     CUMMULATIVE MASS BUDGETS AT END OF TRANSPORT STEP    1, TIME STEP    2, STRESS PERIOD    2
                     ------------------------------------------------------------------------------------------

                                                             IN                           OUT
                                                      ----------------             ----------------
                               CONSTANT CONCENTRATION:    0.000000                    0.000000    
                                        CONSTANT HEAD:    0.000000                    0.000000    
                                             RECHARGE:    302.8809                    0.000000    
                                   EVAPOTRANSPIRATION:    0.000000                   0.6252275E-06
                                MASS STORAGE (SOLUTE):   0.3936015E-02               -302.8148    
                            ---------------------------------------------------------------------------
                                              [TOTAL]:    302.8849       mg          -302.8148       mg

                                                          NET (IN - OUT):   0.7000732E-01
                                                   DISCREPANCY (PERCENT):   0.2311618E-01


                                          ================================================
                                                         TIME STEP NO.  003
                                          ================================================

 FROM TIME =   280.00     TO    370.00    



     1 CALLS TO GCG PACKAGE FOR TRANSPORT TIME STEP   1 IN FLOW TIME STEP   3 STRESS PERIOD   2
    10 TOTAL ITERATIONS
  MAXIMUM CONCENTRATION CHANGES FOR EACH ITERATION:
  MAX. CHANGE LAYER,ROW,COL MAX. CHANGE LAYER,ROW,COL MAX. CHANGE LAYER,ROW,COL MAX. CHANGE LAYER,ROW,COL MAX. CHANGE LAYER,ROW,COL
 ------------------------------------------------------------------------------------------------------------------------------------
   0.2746     (  1,211,124)  0.6264E-01 (  1,214,125)  0.2407E-01 (  1,209,124)  0.9733E-02 (  1,208,124)  0.2728E-02 (  1,208,126)
   0.1251E-02 (  1,209,126)  0.4573E-03 (  1,212,122)  0.2503E-03 (  1,209,127)  0.1210E-03 (  1,209,126)  0.4244E-04 (  1,212,121)


     1 CALLS TO GCG PACKAGE FOR TRANSPORT TIME STEP   1 IN FLOW TIME STEP   3 STRESS PERIOD   2
     9 TOTAL ITERATIONS
  MAXIMUM CONCENTRATION CHANGES FOR EACH ITERATION:
  MAX. CHANGE LAYER,ROW,COL MAX. CHANGE LAYER,ROW,COL MAX. CHANGE LAYER,ROW,COL MAX. CHANGE LAYER,ROW,COL MAX. CHANGE LAYER,ROW,COL
 ------------------------------------------------------------------------------------------------------------------------------------
   0.3114     (  1,131,254)  0.6570E-01 (  1,131,254)  0.2053E-01 (  1,128,256)  0.8799E-02 (  1,131,254)  0.2269E-02 (  1,135,253)
   0.9075E-03 (  1,131,254)  0.3209E-03 (  1,131,251)  0.1706E-03 (  1,127,255)  0.7254E-04 (  1,128,255)


     1 CALLS TO GCG PACKAGE FOR TRANSPORT TIME STEP   1 IN FLOW TIME STEP   3 STRESS PERIOD   2
     9 TOTAL ITERATIONS
  MAXIMUM CONCENTRATION CHANGES FOR EACH ITERATION:
  MAX. CHANGE LAYER,ROW,COL MAX. CHANGE LAYER,ROW,COL MAX. CHANGE LAYER,ROW,COL MAX. CHANGE LAYER,ROW,COL MAX. CHANGE LAYER,ROW,COL
 ------------------------------------------------------------------------------------------------------------------------------------
   0.2673     (  1,192, 53)  0.6221E-01 (  1,192, 56)  0.1992E-01 (  1,189, 53)  0.8075E-02 (  1,192, 53)  0.2454E-02 (  1,193, 54)
   0.1536E-02 (  1,192, 53)  0.3666E-03 (  1,192, 55)  0.1704E-03 (  1,192, 53)  0.7230E-04 (  1,189, 54)



 >>>>>>>>>>>>>>>>>>>>>>>>>>>>>>>>>>>>>>>>>>>>>>>>>>>>>>>FOR COMPONENT NO. 01<<<<<<<<<<<<<<<<<<<<<<<<<<<<<<<<<<<<<<<<<<<<<<<<<<<<<<<


                                            -------------------------------------------
                                                      TRANSPORT STEP NO.    1
                                            -------------------------------------------

 TOTAL ELAPSED TIME SINCE BEGINNING OF SIMULATION =   370.0000       d
 .....................................................................

                     CUMMULATIVE MASS BUDGETS AT END OF TRANSPORT STEP    1, TIME STEP    3, STRESS PERIOD    2
                     ------------------------------------------------------------------------------------------

                                                             IN                           OUT
                                                      ----------------             ----------------
                               CONSTANT CONCENTRATION:    0.000000                    0.000000    
                                        CONSTANT HEAD:    0.000000                    0.000000    
                                             RECHARGE:    143104.0                    0.000000    
                                   EVAPOTRANSPIRATION:    0.000000                   0.2004033E-03
                                MASS STORAGE (SOLUTE):    1.353734                   -143094.0    
                            ---------------------------------------------------------------------------
                                              [TOTAL]:    143105.4       mg          -143094.0       mg

                                                          NET (IN - OUT):    11.40625    
                                                   DISCREPANCY (PERCENT):   0.7970843E-02



 >>>>>>>>>>>>>>>>>>>>>>>>>>>>>>>>>>>>>>>>>>>>>>>>>>>>>>>FOR COMPONENT NO. 02<<<<<<<<<<<<<<<<<<<<<<<<<<<<<<<<<<<<<<<<<<<<<<<<<<<<<<<


                                            -------------------------------------------
                                                      TRANSPORT STEP NO.    1
                                            -------------------------------------------

 TOTAL ELAPSED TIME SINCE BEGINNING OF SIMULATION =   370.0000       d
 .....................................................................

                     CUMMULATIVE MASS BUDGETS AT END OF TRANSPORT STEP    1, TIME STEP    3, STRESS PERIOD    2
                     ------------------------------------------------------------------------------------------

                                                             IN                           OUT
                                                      ----------------             ----------------
                               CONSTANT CONCENTRATION:    0.000000                    0.000000    
                                        CONSTANT HEAD:    0.000000                    0.000000    
                                             RECHARGE:    9328.903                    0.000000    
                                   EVAPOTRANSPIRATION:    0.000000                   0.9305710E-05
                                MASS STORAGE (SOLUTE):   0.1054434                   -9327.657    
                            ---------------------------------------------------------------------------
                                              [TOTAL]:    9329.009       mg          -9327.657       mg

                                                          NET (IN - OUT):    1.351562    
                                                   DISCREPANCY (PERCENT):   0.1448879E-01



 >>>>>>>>>>>>>>>>>>>>>>>>>>>>>>>>>>>>>>>>>>>>>>>>>>>>>>>FOR COMPONENT NO. 03<<<<<<<<<<<<<<<<<<<<<<<<<<<<<<<<<<<<<<<<<<<<<<<<<<<<<<<


                                            -------------------------------------------
                                                      TRANSPORT STEP NO.    1
                                            -------------------------------------------

 TOTAL ELAPSED TIME SINCE BEGINNING OF SIMULATION =   370.0000       d
 .....................................................................

                     CUMMULATIVE MASS BUDGETS AT END OF TRANSPORT STEP    1, TIME STEP    3, STRESS PERIOD    2
                     ------------------------------------------------------------------------------------------

                                                             IN                           OUT
                                                      ----------------             ----------------
                               CONSTANT CONCENTRATION:    0.000000                    0.000000    
                                        CONSTANT HEAD:    0.000000                    0.000000    
                                             RECHARGE:    400.2355                    0.000000    
                                   EVAPOTRANSPIRATION:    0.000000                   0.1972624E-05
                                MASS STORAGE (SOLUTE):   0.4612323E-02               -400.1343    
                            ---------------------------------------------------------------------------
                                              [TOTAL]:    400.2401       mg          -400.1343       mg

                                                          NET (IN - OUT):   0.1058350    
                                                   DISCREPANCY (PERCENT):   0.2644636E-01


                                          ================================================
                                                         TIME STEP NO.  004
                                          ================================================

 FROM TIME =   370.00     TO    460.00    



     1 CALLS TO GCG PACKAGE FOR TRANSPORT TIME STEP   1 IN FLOW TIME STEP   4 STRESS PERIOD   2
    10 TOTAL ITERATIONS
  MAXIMUM CONCENTRATION CHANGES FOR EACH ITERATION:
  MAX. CHANGE LAYER,ROW,COL MAX. CHANGE LAYER,ROW,COL MAX. CHANGE LAYER,ROW,COL MAX. CHANGE LAYER,ROW,COL MAX. CHANGE LAYER,ROW,COL
 ------------------------------------------------------------------------------------------------------------------------------------
   0.2009     (  1,211,124)  0.4925E-01 (  1,214,124)  0.2166E-01 (  1,209,124)  0.7485E-02 (  1,208,124)  0.2429E-02 (  1,210,128)
   0.1148E-02 (  1,212,124)  0.3830E-03 (  2,210,124)  0.2185E-03 (  1,209,127)  0.1011E-03 (  1,209,126)  0.3755E-04 (  1,212,121)


     1 CALLS TO GCG PACKAGE FOR TRANSPORT TIME STEP   1 IN FLOW TIME STEP   4 STRESS PERIOD   2
     9 TOTAL ITERATIONS
  MAXIMUM CONCENTRATION CHANGES FOR EACH ITERATION:
  MAX. CHANGE LAYER,ROW,COL MAX. CHANGE LAYER,ROW,COL MAX. CHANGE LAYER,ROW,COL MAX. CHANGE LAYER,ROW,COL MAX. CHANGE LAYER,ROW,COL
 ------------------------------------------------------------------------------------------------------------------------------------
   0.2356     (  1,131,254)  0.5005E-01 (  1,132,251)  0.1857E-01 (  1,128,256)  0.7077E-02 (  1,131,254)  0.1776E-02 (  1,133,252)
   0.9342E-03 (  1,131,254)  0.2746E-03 (  1,126,255)  0.1410E-03 (  1,127,255)  0.5895E-04 (  1,128,255)


     1 CALLS TO GCG PACKAGE FOR TRANSPORT TIME STEP   1 IN FLOW TIME STEP   4 STRESS PERIOD   2
     9 TOTAL ITERATIONS
  MAXIMUM CONCENTRATION CHANGES FOR EACH ITERATION:
  MAX. CHANGE LAYER,ROW,COL MAX. CHANGE LAYER,ROW,COL MAX. CHANGE LAYER,ROW,COL MAX. CHANGE LAYER,ROW,COL MAX. CHANGE LAYER,ROW,COL
 ------------------------------------------------------------------------------------------------------------------------------------
   0.1930     (  1,192, 53)  0.5065E-01 (  1,192, 56)  0.1789E-01 (  1,189, 53)  0.5839E-02 (  1,192, 53)  0.2113E-02 (  1,190, 56)
   0.1434E-02 (  1,192, 53)  0.2998E-03 (  1,192, 55)  0.1980E-03 (  1,192, 53)  0.6455E-04 (  1,192, 52)



 >>>>>>>>>>>>>>>>>>>>>>>>>>>>>>>>>>>>>>>>>>>>>>>>>>>>>>>FOR COMPONENT NO. 01<<<<<<<<<<<<<<<<<<<<<<<<<<<<<<<<<<<<<<<<<<<<<<<<<<<<<<<


                                            -------------------------------------------
                                                      TRANSPORT STEP NO.    1
                                            -------------------------------------------

 TOTAL ELAPSED TIME SINCE BEGINNING OF SIMULATION =   460.0000       d
 .....................................................................

                     CUMMULATIVE MASS BUDGETS AT END OF TRANSPORT STEP    1, TIME STEP    4, STRESS PERIOD    2
                     ------------------------------------------------------------------------------------------

                                                             IN                           OUT
                                                      ----------------             ----------------
                               CONSTANT CONCENTRATION:    0.000000                    0.000000    
                                        CONSTANT HEAD:    0.000000                    0.000000    
                                             RECHARGE:    177913.1                    0.000000    
                                   EVAPOTRANSPIRATION:    0.000000                   0.1824323E-02
                                MASS STORAGE (SOLUTE):    2.508575                   -177901.2    
                            ---------------------------------------------------------------------------
                                              [TOTAL]:    177915.6       mg          -177901.2       mg

                                                          NET (IN - OUT):    14.42188    
                                                   DISCREPANCY (PERCENT):   0.8106348E-02



 >>>>>>>>>>>>>>>>>>>>>>>>>>>>>>>>>>>>>>>>>>>>>>>>>>>>>>>FOR COMPONENT NO. 02<<<<<<<<<<<<<<<<<<<<<<<<<<<<<<<<<<<<<<<<<<<<<<<<<<<<<<<


                                            -------------------------------------------
                                                      TRANSPORT STEP NO.    1
                                            -------------------------------------------

 TOTAL ELAPSED TIME SINCE BEGINNING OF SIMULATION =   460.0000       d
 .....................................................................

                     CUMMULATIVE MASS BUDGETS AT END OF TRANSPORT STEP    1, TIME STEP    4, STRESS PERIOD    2
                     ------------------------------------------------------------------------------------------

                                                             IN                           OUT
                                                      ----------------             ----------------
                               CONSTANT CONCENTRATION:    0.000000                    0.000000    
                                        CONSTANT HEAD:    0.000000                    0.000000    
                                             RECHARGE:    11598.10                    0.000000    
                                   EVAPOTRANSPIRATION:    0.000000                   0.6738985E-04
                                MASS STORAGE (SOLUTE):   0.1935893                   -11596.46    
                            ---------------------------------------------------------------------------
                                              [TOTAL]:    11598.29       mg          -11596.46       mg

                                                          NET (IN - OUT):    1.828125    
                                                   DISCREPANCY (PERCENT):   0.1576326E-01



 >>>>>>>>>>>>>>>>>>>>>>>>>>>>>>>>>>>>>>>>>>>>>>>>>>>>>>>FOR COMPONENT NO. 03<<<<<<<<<<<<<<<<<<<<<<<<<<<<<<<<<<<<<<<<<<<<<<<<<<<<<<<


                                            -------------------------------------------
                                                      TRANSPORT STEP NO.    1
                                            -------------------------------------------

 TOTAL ELAPSED TIME SINCE BEGINNING OF SIMULATION =   460.0000       d
 .....................................................................

                     CUMMULATIVE MASS BUDGETS AT END OF TRANSPORT STEP    1, TIME STEP    4, STRESS PERIOD    2
                     ------------------------------------------------------------------------------------------

                                                             IN                           OUT
                                                      ----------------             ----------------
                               CONSTANT CONCENTRATION:    0.000000                    0.000000    
                                        CONSTANT HEAD:    0.000000                    0.000000    
                                             RECHARGE:    497.5901                    0.000000    
                                   EVAPOTRANSPIRATION:    0.000000                   0.1659514E-04
                                MASS STORAGE (SOLUTE):   0.7205506E-02               -497.4589    
                            ---------------------------------------------------------------------------
                                              [TOTAL]:    497.5973       mg          -497.4588       mg

                                                          NET (IN - OUT):   0.1384583    
                                                   DISCREPANCY (PERCENT):   0.2782923E-01


                                          ================================================
                                                         TIME STEP NO.  005
                                          ================================================

 FROM TIME =   460.00     TO    550.00    



     1 CALLS TO GCG PACKAGE FOR TRANSPORT TIME STEP   1 IN FLOW TIME STEP   5 STRESS PERIOD   2
     9 TOTAL ITERATIONS
  MAXIMUM CONCENTRATION CHANGES FOR EACH ITERATION:
  MAX. CHANGE LAYER,ROW,COL MAX. CHANGE LAYER,ROW,COL MAX. CHANGE LAYER,ROW,COL MAX. CHANGE LAYER,ROW,COL MAX. CHANGE LAYER,ROW,COL
 ------------------------------------------------------------------------------------------------------------------------------------
   0.1585     (  1,211,124)  0.4142E-01 (  1,214,124)  0.1959E-01 (  1,209,124)  0.6138E-02 (  1,208,124)  0.2220E-02 (  1,208,126)
   0.1022E-02 (  1,212,124)  0.3333E-03 (  2,210,124)  0.1916E-03 (  1,209,127)  0.8947E-04 (  1,209,126)


     1 CALLS TO GCG PACKAGE FOR TRANSPORT TIME STEP   1 IN FLOW TIME STEP   5 STRESS PERIOD   2
     9 TOTAL ITERATIONS
  MAXIMUM CONCENTRATION CHANGES FOR EACH ITERATION:
  MAX. CHANGE LAYER,ROW,COL MAX. CHANGE LAYER,ROW,COL MAX. CHANGE LAYER,ROW,COL MAX. CHANGE LAYER,ROW,COL MAX. CHANGE LAYER,ROW,COL
 ------------------------------------------------------------------------------------------------------------------------------------
   0.1908     (  1,131,254)  0.4145E-01 (  1,127,254)  0.1688E-01 (  1,128,256)  0.5671E-02 (  1,131,254)  0.1588E-02 (  1,133,252)
   0.8804E-03 (  1,131,254)  0.2501E-03 (  1,126,255)  0.1220E-03 (  1,127,255)  0.5090E-04 (  1,128,255)


     1 CALLS TO GCG PACKAGE FOR TRANSPORT TIME STEP   1 IN FLOW TIME STEP   5 STRESS PERIOD   2
     9 TOTAL ITERATIONS
  MAXIMUM CONCENTRATION CHANGES FOR EACH ITERATION:
  MAX. CHANGE LAYER,ROW,COL MAX. CHANGE LAYER,ROW,COL MAX. CHANGE LAYER,ROW,COL MAX. CHANGE LAYER,ROW,COL MAX. CHANGE LAYER,ROW,COL
 ------------------------------------------------------------------------------------------------------------------------------------
   0.1502     (  1,192, 53)  0.4392E-01 (  1,192, 56)  0.1619E-01 (  1,189, 53)  0.4986E-02 (  1,194, 53)  0.1935E-02 (  1,190, 56)
   0.1268E-02 (  1,192, 53)  0.2562E-03 (  1,192, 55)  0.2024E-03 (  1,192, 53)  0.5758E-04 (  1,192, 52)



 >>>>>>>>>>>>>>>>>>>>>>>>>>>>>>>>>>>>>>>>>>>>>>>>>>>>>>>FOR COMPONENT NO. 01<<<<<<<<<<<<<<<<<<<<<<<<<<<<<<<<<<<<<<<<<<<<<<<<<<<<<<<


                                            -------------------------------------------
                                                      TRANSPORT STEP NO.    1
                                            -------------------------------------------

 TOTAL ELAPSED TIME SINCE BEGINNING OF SIMULATION =   550.0000       d
 .....................................................................

                     CUMMULATIVE MASS BUDGETS AT END OF TRANSPORT STEP    1, TIME STEP    5, STRESS PERIOD    2
                     ------------------------------------------------------------------------------------------

                                                             IN                           OUT
                                                      ----------------             ----------------
                               CONSTANT CONCENTRATION:    0.000000                    0.000000    
                                        CONSTANT HEAD:    0.000000                    0.000000    
                                             RECHARGE:    212722.2                    0.000000    
                                   EVAPOTRANSPIRATION:    0.000000                   0.7205186E-02
                                MASS STORAGE (SOLUTE):    4.309627                   -212703.2    
                            ---------------------------------------------------------------------------
                                              [TOTAL]:    212726.5       mg          -212703.2       mg

                                                          NET (IN - OUT):    23.29688    
                                                   DISCREPANCY (PERCENT):   0.1095216E-01



 >>>>>>>>>>>>>>>>>>>>>>>>>>>>>>>>>>>>>>>>>>>>>>>>>>>>>>>FOR COMPONENT NO. 02<<<<<<<<<<<<<<<<<<<<<<<<<<<<<<<<<<<<<<<<<<<<<<<<<<<<<<<


                                            -------------------------------------------
                                                      TRANSPORT STEP NO.    1
                                            -------------------------------------------

 TOTAL ELAPSED TIME SINCE BEGINNING OF SIMULATION =   550.0000       d
 .....................................................................

                     CUMMULATIVE MASS BUDGETS AT END OF TRANSPORT STEP    1, TIME STEP    5, STRESS PERIOD    2
                     ------------------------------------------------------------------------------------------

                                                             IN                           OUT
                                                      ----------------             ----------------
                               CONSTANT CONCENTRATION:    0.000000                    0.000000    
                                        CONSTANT HEAD:    0.000000                    0.000000    
                                             RECHARGE:    13867.29                    0.000000    
                                   EVAPOTRANSPIRATION:    0.000000                   0.2570158E-03
                                MASS STORAGE (SOLUTE):   0.3206384                   -13865.30    
                            ---------------------------------------------------------------------------
                                              [TOTAL]:    13867.61       mg          -13865.30       mg

                                                          NET (IN - OUT):    2.308594    
                                                   DISCREPANCY (PERCENT):   0.1664877E-01



 >>>>>>>>>>>>>>>>>>>>>>>>>>>>>>>>>>>>>>>>>>>>>>>>>>>>>>>FOR COMPONENT NO. 03<<<<<<<<<<<<<<<<<<<<<<<<<<<<<<<<<<<<<<<<<<<<<<<<<<<<<<<


                                            -------------------------------------------
                                                      TRANSPORT STEP NO.    1
                                            -------------------------------------------

 TOTAL ELAPSED TIME SINCE BEGINNING OF SIMULATION =   550.0000       d
 .....................................................................

                     CUMMULATIVE MASS BUDGETS AT END OF TRANSPORT STEP    1, TIME STEP    5, STRESS PERIOD    2
                     ------------------------------------------------------------------------------------------

                                                             IN                           OUT
                                                      ----------------             ----------------
                               CONSTANT CONCENTRATION:    0.000000                    0.000000    
                                        CONSTANT HEAD:    0.000000                    0.000000    
                                             RECHARGE:    594.9446                    0.000000    
                                   EVAPOTRANSPIRATION:    0.000000                   0.6317873E-04
                                MASS STORAGE (SOLUTE):   0.1245490E-01               -594.7881    
                            ---------------------------------------------------------------------------
                                              [TOTAL]:    594.9571       mg          -594.7880       mg

                                                          NET (IN - OUT):   0.1690674    
                                                   DISCREPANCY (PERCENT):   0.2842077E-01


                                          ================================================
                                                         TIME STEP NO.  006
                                          ================================================

 FROM TIME =   550.00     TO    640.00    



     1 CALLS TO GCG PACKAGE FOR TRANSPORT TIME STEP   1 IN FLOW TIME STEP   6 STRESS PERIOD   2
     9 TOTAL ITERATIONS
  MAXIMUM CONCENTRATION CHANGES FOR EACH ITERATION:
  MAX. CHANGE LAYER,ROW,COL MAX. CHANGE LAYER,ROW,COL MAX. CHANGE LAYER,ROW,COL MAX. CHANGE LAYER,ROW,COL MAX. CHANGE LAYER,ROW,COL
 ------------------------------------------------------------------------------------------------------------------------------------
   0.1319     (  1,211,124)  0.3635E-01 (  1,214,124)  0.1786E-01 (  1,209,124)  0.5304E-02 (  1,208,124)  0.2061E-02 (  1,208,126)
   0.9321E-03 (  1,131,254)  0.2990E-03 (  2,210,124)  0.1873E-03 (  1,131,254)  0.8315E-04 (  1,209,126)


     1 CALLS TO GCG PACKAGE FOR TRANSPORT TIME STEP   1 IN FLOW TIME STEP   6 STRESS PERIOD   2
     9 TOTAL ITERATIONS
  MAXIMUM CONCENTRATION CHANGES FOR EACH ITERATION:
  MAX. CHANGE LAYER,ROW,COL MAX. CHANGE LAYER,ROW,COL MAX. CHANGE LAYER,ROW,COL MAX. CHANGE LAYER,ROW,COL MAX. CHANGE LAYER,ROW,COL
 ------------------------------------------------------------------------------------------------------------------------------------
   0.1620     (  1,131,254)  0.3590E-01 (  1,127,254)  0.1542E-01 (  1,128,256)  0.4640E-02 (  1,131,254)  0.1447E-02 (  1,131,258)
   0.8005E-03 (  1,131,254)  0.2326E-03 (  1,126,255)  0.1099E-03 (  1,125,255)  0.4596E-04 (  1,128,255)


     1 CALLS TO GCG PACKAGE FOR TRANSPORT TIME STEP   1 IN FLOW TIME STEP   6 STRESS PERIOD   2
     9 TOTAL ITERATIONS
  MAXIMUM CONCENTRATION CHANGES FOR EACH ITERATION:
  MAX. CHANGE LAYER,ROW,COL MAX. CHANGE LAYER,ROW,COL MAX. CHANGE LAYER,ROW,COL MAX. CHANGE LAYER,ROW,COL MAX. CHANGE LAYER,ROW,COL
 ------------------------------------------------------------------------------------------------------------------------------------
   0.1237     (  1,192, 53)  0.3943E-01 (  1,192, 56)  0.1487E-01 (  1,189, 53)  0.4339E-02 (  1,194, 53)  0.1773E-02 (  1,190, 56)
   0.1104E-02 (  1,192, 53)  0.2277E-03 (  1,192, 55)  0.1917E-03 (  1,192, 53)  0.5326E-04 (  1,193, 57)



 >>>>>>>>>>>>>>>>>>>>>>>>>>>>>>>>>>>>>>>>>>>>>>>>>>>>>>>FOR COMPONENT NO. 01<<<<<<<<<<<<<<<<<<<<<<<<<<<<<<<<<<<<<<<<<<<<<<<<<<<<<<<


                                            -------------------------------------------
                                                      TRANSPORT STEP NO.    1
                                            -------------------------------------------

 TOTAL ELAPSED TIME SINCE BEGINNING OF SIMULATION =   640.0000       d
 .....................................................................

                     CUMMULATIVE MASS BUDGETS AT END OF TRANSPORT STEP    1, TIME STEP    6, STRESS PERIOD    2
                     ------------------------------------------------------------------------------------------

                                                             IN                           OUT
                                                      ----------------             ----------------
                               CONSTANT CONCENTRATION:    0.000000                    0.000000    
                                        CONSTANT HEAD:    0.000000                    0.000000    
                                             RECHARGE:    247531.2                    0.000000    
                                   EVAPOTRANSPIRATION:    0.000000                   0.1906824E-01
                                MASS STORAGE (SOLUTE):    6.861685                   -247506.0    
                            ---------------------------------------------------------------------------
                                              [TOTAL]:    247538.1       mg          -247506.0       mg

                                                          NET (IN - OUT):    32.12500    
                                                   DISCREPANCY (PERCENT):   0.1297864E-01



 >>>>>>>>>>>>>>>>>>>>>>>>>>>>>>>>>>>>>>>>>>>>>>>>>>>>>>>FOR COMPONENT NO. 02<<<<<<<<<<<<<<<<<<<<<<<<<<<<<<<<<<<<<<<<<<<<<<<<<<<<<<<


                                            -------------------------------------------
                                                      TRANSPORT STEP NO.    1
                                            -------------------------------------------

 TOTAL ELAPSED TIME SINCE BEGINNING OF SIMULATION =   640.0000       d
 .....................................................................

                     CUMMULATIVE MASS BUDGETS AT END OF TRANSPORT STEP    1, TIME STEP    6, STRESS PERIOD    2
                     ------------------------------------------------------------------------------------------

                                                             IN                           OUT
                                                      ----------------             ----------------
                               CONSTANT CONCENTRATION:    0.000000                    0.000000    
                                        CONSTANT HEAD:    0.000000                    0.000000    
                                             RECHARGE:    16136.48                    0.000000    
                                   EVAPOTRANSPIRATION:    0.000000                   0.6665689E-03
                                MASS STORAGE (SOLUTE):   0.4890717                   -16134.18    
                            ---------------------------------------------------------------------------
                                              [TOTAL]:    16136.97       mg          -16134.18       mg

                                                          NET (IN - OUT):    2.794922    
                                                   DISCREPANCY (PERCENT):   0.1732149E-01



 >>>>>>>>>>>>>>>>>>>>>>>>>>>>>>>>>>>>>>>>>>>>>>>>>>>>>>>FOR COMPONENT NO. 03<<<<<<<<<<<<<<<<<<<<<<<<<<<<<<<<<<<<<<<<<<<<<<<<<<<<<<<


                                            -------------------------------------------
                                                      TRANSPORT STEP NO.    1
                                            -------------------------------------------

 TOTAL ELAPSED TIME SINCE BEGINNING OF SIMULATION =   640.0000       d
 .....................................................................

                     CUMMULATIVE MASS BUDGETS AT END OF TRANSPORT STEP    1, TIME STEP    6, STRESS PERIOD    2
                     ------------------------------------------------------------------------------------------

                                                             IN                           OUT
                                                      ----------------             ----------------
                               CONSTANT CONCENTRATION:    0.000000                    0.000000    
                                        CONSTANT HEAD:    0.000000                    0.000000    
                                             RECHARGE:    692.2992                    0.000000    
                                   EVAPOTRANSPIRATION:    0.000000                   0.1595155E-03
                                MASS STORAGE (SOLUTE):   0.2058598E-01               -692.1222    
                            ---------------------------------------------------------------------------
                                              [TOTAL]:    692.3198       mg          -692.1220       mg

                                                          NET (IN - OUT):   0.1977539    
                                                   DISCREPANCY (PERCENT):   0.2856803E-01


                                          ================================================
                                                         TIME STEP NO.  007
                                          ================================================

 FROM TIME =   640.00     TO    730.00    



     1 CALLS TO GCG PACKAGE FOR TRANSPORT TIME STEP   1 IN FLOW TIME STEP   7 STRESS PERIOD   2
     9 TOTAL ITERATIONS
  MAXIMUM CONCENTRATION CHANGES FOR EACH ITERATION:
  MAX. CHANGE LAYER,ROW,COL MAX. CHANGE LAYER,ROW,COL MAX. CHANGE LAYER,ROW,COL MAX. CHANGE LAYER,ROW,COL MAX. CHANGE LAYER,ROW,COL
 ------------------------------------------------------------------------------------------------------------------------------------
   0.1143     (  1,211,124)  0.3282E-01 (  1,214,124)  0.1647E-01 (  1,209,124)  0.4765E-02 (  1,208,124)  0.1936E-02 (  1,208,126)
   0.8441E-03 (  1,131,254)  0.2758E-03 (  2,210,124)  0.1796E-03 (  1,131,254)  0.7838E-04 (  1,209,126)


     1 CALLS TO GCG PACKAGE FOR TRANSPORT TIME STEP   1 IN FLOW TIME STEP   7 STRESS PERIOD   2
     9 TOTAL ITERATIONS
  MAXIMUM CONCENTRATION CHANGES FOR EACH ITERATION:
  MAX. CHANGE LAYER,ROW,COL MAX. CHANGE LAYER,ROW,COL MAX. CHANGE LAYER,ROW,COL MAX. CHANGE LAYER,ROW,COL MAX. CHANGE LAYER,ROW,COL
 ------------------------------------------------------------------------------------------------------------------------------------
   0.1425     (  1,131,254)  0.3201E-01 (  1,127,254)  0.1420E-01 (  1,128,256)  0.4071E-02 (  1,134,253)  0.1413E-02 (  1,131,258)
   0.7237E-03 (  1,131,254)  0.2193E-03 (  1,126,255)  0.1074E-03 (  1,131,254)  0.4262E-04 (  1,128,255)


     1 CALLS TO GCG PACKAGE FOR TRANSPORT TIME STEP   1 IN FLOW TIME STEP   7 STRESS PERIOD   2
     9 TOTAL ITERATIONS
  MAXIMUM CONCENTRATION CHANGES FOR EACH ITERATION:
  MAX. CHANGE LAYER,ROW,COL MAX. CHANGE LAYER,ROW,COL MAX. CHANGE LAYER,ROW,COL MAX. CHANGE LAYER,ROW,COL MAX. CHANGE LAYER,ROW,COL
 ------------------------------------------------------------------------------------------------------------------------------------
   0.1063     (  1,191, 53)  0.3610E-01 (  1,192, 56)  0.1388E-01 (  1,189, 53)  0.3896E-02 (  1,194, 54)  0.1636E-02 (  1,190, 56)
   0.9642E-03 (  1,192, 53)  0.2174E-03 (  1,188, 54)  0.1749E-03 (  1,192, 53)  0.5129E-04 (  1,186, 52)



 >>>>>>>>>>>>>>>>>>>>>>>>>>>>>>>>>>>>>>>>>>>>>>>>>>>>>>>FOR COMPONENT NO. 01<<<<<<<<<<<<<<<<<<<<<<<<<<<<<<<<<<<<<<<<<<<<<<<<<<<<<<<


                                            -------------------------------------------
                                                      TRANSPORT STEP NO.    1
                                            -------------------------------------------

 TOTAL ELAPSED TIME SINCE BEGINNING OF SIMULATION =   730.0000       d
 .....................................................................

                     CUMMULATIVE MASS BUDGETS AT END OF TRANSPORT STEP    1, TIME STEP    7, STRESS PERIOD    2
                     ------------------------------------------------------------------------------------------

                                                             IN                           OUT
                                                      ----------------             ----------------
                               CONSTANT CONCENTRATION:    0.000000                    0.000000    
                                        CONSTANT HEAD:    0.000000                  -0.5697585E-33
                                             RECHARGE:    282340.3                    0.000000    
                                   EVAPOTRANSPIRATION:    0.000000                   0.4019716E-01
                                MASS STORAGE (SOLUTE):    10.18941                   -282309.5    
                            ---------------------------------------------------------------------------
                                              [TOTAL]:    282350.5       mg          -282309.5       mg

                                                          NET (IN - OUT):    41.06250    
                                                   DISCREPANCY (PERCENT):   0.1454415E-01



 >>>>>>>>>>>>>>>>>>>>>>>>>>>>>>>>>>>>>>>>>>>>>>>>>>>>>>>FOR COMPONENT NO. 02<<<<<<<<<<<<<<<<<<<<<<<<<<<<<<<<<<<<<<<<<<<<<<<<<<<<<<<


                                            -------------------------------------------
                                                      TRANSPORT STEP NO.    1
                                            -------------------------------------------

 TOTAL ELAPSED TIME SINCE BEGINNING OF SIMULATION =   730.0000       d
 .....................................................................

                     CUMMULATIVE MASS BUDGETS AT END OF TRANSPORT STEP    1, TIME STEP    7, STRESS PERIOD    2
                     ------------------------------------------------------------------------------------------

                                                             IN                           OUT
                                                      ----------------             ----------------
                               CONSTANT CONCENTRATION:    0.000000                    0.000000    
                                        CONSTANT HEAD:    0.000000                  -0.3447354E-34
                                             RECHARGE:    18405.68                    0.000000    
                                   EVAPOTRANSPIRATION:    0.000000                   0.1384931E-02
                                MASS STORAGE (SOLUTE):   0.6983719                   -18403.09    
                            ---------------------------------------------------------------------------
                                              [TOTAL]:    18406.38       mg          -18403.09       mg

                                                          NET (IN - OUT):    3.283203    
                                                   DISCREPANCY (PERCENT):   0.1783890E-01



 >>>>>>>>>>>>>>>>>>>>>>>>>>>>>>>>>>>>>>>>>>>>>>>>>>>>>>>FOR COMPONENT NO. 03<<<<<<<<<<<<<<<<<<<<<<<<<<<<<<<<<<<<<<<<<<<<<<<<<<<<<<<


                                            -------------------------------------------
                                                      TRANSPORT STEP NO.    1
                                            -------------------------------------------

 TOTAL ELAPSED TIME SINCE BEGINNING OF SIMULATION =   730.0000       d
 .....................................................................

                     CUMMULATIVE MASS BUDGETS AT END OF TRANSPORT STEP    1, TIME STEP    7, STRESS PERIOD    2
                     ------------------------------------------------------------------------------------------

                                                             IN                           OUT
                                                      ----------------             ----------------
                               CONSTANT CONCENTRATION:    0.000000                    0.000000    
                                        CONSTANT HEAD:    0.000000                    0.000000    
                                             RECHARGE:    789.6537                    0.000000    
                                   EVAPOTRANSPIRATION:    0.000000                   0.3218862E-03
                                MASS STORAGE (SOLUTE):   0.3137189E-01               -789.4604    
                            ---------------------------------------------------------------------------
                                              [TOTAL]:    789.6851       mg          -789.4601       mg

                                                          NET (IN - OUT):   0.2250366    
                                                   DISCREPANCY (PERCENT):   0.2850107E-01


                                          ================================================
                                                         TIME STEP NO.  008
                                          ================================================

 FROM TIME =   730.00     TO    820.00    



     1 CALLS TO GCG PACKAGE FOR TRANSPORT TIME STEP   1 IN FLOW TIME STEP   8 STRESS PERIOD   2
     9 TOTAL ITERATIONS
  MAXIMUM CONCENTRATION CHANGES FOR EACH ITERATION:
  MAX. CHANGE LAYER,ROW,COL MAX. CHANGE LAYER,ROW,COL MAX. CHANGE LAYER,ROW,COL MAX. CHANGE LAYER,ROW,COL MAX. CHANGE LAYER,ROW,COL
 ------------------------------------------------------------------------------------------------------------------------------------
   0.1021     (  1,211,124)  0.3019E-01 (  1,214,124)  0.1537E-01 (  1,209,124)  0.4400E-02 (  1,208,124)  0.1834E-02 (  1,208,126)
   0.8007E-03 (  1,209,126)  0.2585E-03 (  2,210,124)  0.1697E-03 (  1,131,254)  0.7451E-04 (  1,209,126)


     1 CALLS TO GCG PACKAGE FOR TRANSPORT TIME STEP   1 IN FLOW TIME STEP   8 STRESS PERIOD   2
     9 TOTAL ITERATIONS
  MAXIMUM CONCENTRATION CHANGES FOR EACH ITERATION:
  MAX. CHANGE LAYER,ROW,COL MAX. CHANGE LAYER,ROW,COL MAX. CHANGE LAYER,ROW,COL MAX. CHANGE LAYER,ROW,COL MAX. CHANGE LAYER,ROW,COL
 ------------------------------------------------------------------------------------------------------------------------------------
   0.1288     (  1,131,254)  0.2914E-01 (  1,127,254)  0.1322E-01 (  1,128,256)  0.3673E-02 (  1,134,253)  0.1371E-02 (  1,131,258)
   0.6583E-03 (  1,131,254)  0.2085E-03 (  1,126,255)  0.1032E-03 (  1,131,254)  0.4017E-04 (  1,128,255)


     1 CALLS TO GCG PACKAGE FOR TRANSPORT TIME STEP   1 IN FLOW TIME STEP   8 STRESS PERIOD   2
     9 TOTAL ITERATIONS
  MAXIMUM CONCENTRATION CHANGES FOR EACH ITERATION:
  MAX. CHANGE LAYER,ROW,COL MAX. CHANGE LAYER,ROW,COL MAX. CHANGE LAYER,ROW,COL MAX. CHANGE LAYER,ROW,COL MAX. CHANGE LAYER,ROW,COL
 ------------------------------------------------------------------------------------------------------------------------------------
   0.9485E-01 (  1,191, 53)  0.3347E-01 (  1,192, 56)  0.1312E-01 (  1,189, 53)  0.3674E-02 (  1,190, 52)  0.1521E-02 (  1,190, 56)
   0.8484E-03 (  1,192, 53)  0.2101E-03 (  1,188, 54)  0.1570E-03 (  1,192, 53)  0.5083E-04 (  1,186, 52)



 >>>>>>>>>>>>>>>>>>>>>>>>>>>>>>>>>>>>>>>>>>>>>>>>>>>>>>>FOR COMPONENT NO. 01<<<<<<<<<<<<<<<<<<<<<<<<<<<<<<<<<<<<<<<<<<<<<<<<<<<<<<<


                                            -------------------------------------------
                                                      TRANSPORT STEP NO.    1
                                            -------------------------------------------

 TOTAL ELAPSED TIME SINCE BEGINNING OF SIMULATION =   820.0000       d
 .....................................................................

                     CUMMULATIVE MASS BUDGETS AT END OF TRANSPORT STEP    1, TIME STEP    8, STRESS PERIOD    2
                     ------------------------------------------------------------------------------------------

                                                             IN                           OUT
                                                      ----------------             ----------------
                               CONSTANT CONCENTRATION:    0.000000                    0.000000    
                                        CONSTANT HEAD:    0.000000                  -0.4041178E-32
                                             RECHARGE:    317149.4                    0.000000    
                                   EVAPOTRANSPIRATION:    0.000000                   0.7397581E-01
                                MASS STORAGE (SOLUTE):    14.29242                   -317113.8    
                            ---------------------------------------------------------------------------
                                              [TOTAL]:    317163.7       mg          -317113.7       mg

                                                          NET (IN - OUT):    50.03125    
                                                   DISCREPANCY (PERCENT):   0.1577583E-01



 >>>>>>>>>>>>>>>>>>>>>>>>>>>>>>>>>>>>>>>>>>>>>>>>>>>>>>>FOR COMPONENT NO. 02<<<<<<<<<<<<<<<<<<<<<<<<<<<<<<<<<<<<<<<<<<<<<<<<<<<<<<<


                                            -------------------------------------------
                                                      TRANSPORT STEP NO.    1
                                            -------------------------------------------

 TOTAL ELAPSED TIME SINCE BEGINNING OF SIMULATION =   820.0000       d
 .....................................................................

                     CUMMULATIVE MASS BUDGETS AT END OF TRANSPORT STEP    1, TIME STEP    8, STRESS PERIOD    2
                     ------------------------------------------------------------------------------------------

                                                             IN                           OUT
                                                      ----------------             ----------------
                               CONSTANT CONCENTRATION:    0.000000                    0.000000    
                                        CONSTANT HEAD:    0.000000                  -0.2717083E-33
                                             RECHARGE:    20674.87                    0.000000    
                                   EVAPOTRANSPIRATION:    0.000000                   0.2499057E-02
                                MASS STORAGE (SOLUTE):   0.9458693                   -20672.04    
                            ---------------------------------------------------------------------------
                                              [TOTAL]:    20675.81       mg          -20672.04       mg

                                                          NET (IN - OUT):    3.777344    
                                                   DISCREPANCY (PERCENT):   0.1827105E-01



 >>>>>>>>>>>>>>>>>>>>>>>>>>>>>>>>>>>>>>>>>>>>>>>>>>>>>>>FOR COMPONENT NO. 03<<<<<<<<<<<<<<<<<<<<<<<<<<<<<<<<<<<<<<<<<<<<<<<<<<<<<<<


                                            -------------------------------------------
                                                      TRANSPORT STEP NO.    1
                                            -------------------------------------------

 TOTAL ELAPSED TIME SINCE BEGINNING OF SIMULATION =   820.0000       d
 .....................................................................

                     CUMMULATIVE MASS BUDGETS AT END OF TRANSPORT STEP    1, TIME STEP    8, STRESS PERIOD    2
                     ------------------------------------------------------------------------------------------

                                                             IN                           OUT
                                                      ----------------             ----------------
                               CONSTANT CONCENTRATION:    0.000000                    0.000000    
                                        CONSTANT HEAD:    0.000000                    0.000000    
                                             RECHARGE:    887.0083                    0.000000    
                                   EVAPOTRANSPIRATION:    0.000000                   0.5618550E-03
                                MASS STORAGE (SOLUTE):   0.4404587E-01               -886.8018    
                            ---------------------------------------------------------------------------
                                              [TOTAL]:    887.0524       mg          -886.8013       mg

                                                          NET (IN - OUT):   0.2510986    
                                                   DISCREPANCY (PERCENT):   0.2831109E-01


                                          ================================================
                                                         TIME STEP NO.  009
                                          ================================================

 FROM TIME =   820.00     TO    910.00    



     1 CALLS TO GCG PACKAGE FOR TRANSPORT TIME STEP   1 IN FLOW TIME STEP   9 STRESS PERIOD   2
     9 TOTAL ITERATIONS
  MAXIMUM CONCENTRATION CHANGES FOR EACH ITERATION:
  MAX. CHANGE LAYER,ROW,COL MAX. CHANGE LAYER,ROW,COL MAX. CHANGE LAYER,ROW,COL MAX. CHANGE LAYER,ROW,COL MAX. CHANGE LAYER,ROW,COL
 ------------------------------------------------------------------------------------------------------------------------------------
   0.9335E-01 (  1,211,124)  0.2814E-01 (  1,214,124)  0.1450E-01 (  1,209,124)  0.4142E-02 (  1,208,124)  0.1747E-02 (  1,208,126)
   0.7674E-03 (  1,209,126)  0.2449E-03 (  2,210,124)  0.1595E-03 (  1,131,254)  0.7200E-04 (  1,209,126)


     1 CALLS TO GCG PACKAGE FOR TRANSPORT TIME STEP   1 IN FLOW TIME STEP   9 STRESS PERIOD   2
     8 TOTAL ITERATIONS
  MAXIMUM CONCENTRATION CHANGES FOR EACH ITERATION:
  MAX. CHANGE LAYER,ROW,COL MAX. CHANGE LAYER,ROW,COL MAX. CHANGE LAYER,ROW,COL MAX. CHANGE LAYER,ROW,COL MAX. CHANGE LAYER,ROW,COL
 ------------------------------------------------------------------------------------------------------------------------------------
   0.1187     (  1,131,254)  0.2693E-01 (  1,127,254)  0.1242E-01 (  1,128,256)  0.3354E-02 (  1,134,253)  0.1328E-02 (  1,131,258)
   0.6043E-03 (  1,131,254)  0.1994E-03 (  1,126,255)  0.9811E-04 (  1,131,254)


     1 CALLS TO GCG PACKAGE FOR TRANSPORT TIME STEP   1 IN FLOW TIME STEP   9 STRESS PERIOD   2
     9 TOTAL ITERATIONS
  MAXIMUM CONCENTRATION CHANGES FOR EACH ITERATION:
  MAX. CHANGE LAYER,ROW,COL MAX. CHANGE LAYER,ROW,COL MAX. CHANGE LAYER,ROW,COL MAX. CHANGE LAYER,ROW,COL MAX. CHANGE LAYER,ROW,COL
 ------------------------------------------------------------------------------------------------------------------------------------
   0.8653E-01 (  1,191, 53)  0.3132E-01 (  1,192, 56)  0.1252E-01 (  1,189, 53)  0.3557E-02 (  1,190, 52)  0.1426E-02 (  1,190, 56)
   0.7528E-03 (  1,192, 53)  0.2043E-03 (  1,188, 54)  0.1401E-03 (  1,192, 53)  0.4984E-04 (  1,186, 52)



 >>>>>>>>>>>>>>>>>>>>>>>>>>>>>>>>>>>>>>>>>>>>>>>>>>>>>>>FOR COMPONENT NO. 01<<<<<<<<<<<<<<<<<<<<<<<<<<<<<<<<<<<<<<<<<<<<<<<<<<<<<<<


                                            -------------------------------------------
                                                      TRANSPORT STEP NO.    1
                                            -------------------------------------------

 TOTAL ELAPSED TIME SINCE BEGINNING OF SIMULATION =   910.0000       d
 .....................................................................

                     CUMMULATIVE MASS BUDGETS AT END OF TRANSPORT STEP    1, TIME STEP    9, STRESS PERIOD    2
                     ------------------------------------------------------------------------------------------

                                                             IN                           OUT
                                                      ----------------             ----------------
                               CONSTANT CONCENTRATION:    0.000000                    0.000000    
                                        CONSTANT HEAD:    0.000000                  -0.1981988E-31
                                             RECHARGE:    351958.5                    0.000000    
                                   EVAPOTRANSPIRATION:    0.000000                   0.1231929    
                                MASS STORAGE (SOLUTE):    19.19262                   -351918.9    
                            ---------------------------------------------------------------------------
                                              [TOTAL]:    351977.7       mg          -351918.8       mg

                                                          NET (IN - OUT):    58.90625    
                                                   DISCREPANCY (PERCENT):   0.1673719E-01



 >>>>>>>>>>>>>>>>>>>>>>>>>>>>>>>>>>>>>>>>>>>>>>>>>>>>>>>FOR COMPONENT NO. 02<<<<<<<<<<<<<<<<<<<<<<<<<<<<<<<<<<<<<<<<<<<<<<<<<<<<<<<


                                            -------------------------------------------
                                                      TRANSPORT STEP NO.    1
                                            -------------------------------------------

 TOTAL ELAPSED TIME SINCE BEGINNING OF SIMULATION =   910.0000       d
 .....................................................................

                     CUMMULATIVE MASS BUDGETS AT END OF TRANSPORT STEP    1, TIME STEP    9, STRESS PERIOD    2
                     ------------------------------------------------------------------------------------------

                                                             IN                           OUT
                                                      ----------------             ----------------
                               CONSTANT CONCENTRATION:    0.000000                    0.000000    
                                        CONSTANT HEAD:    0.000000                  -0.1386971E-32
                                             RECHARGE:    22944.06                    0.000000    
                                   EVAPOTRANSPIRATION:    0.000000                   0.4070985E-02
                                MASS STORAGE (SOLUTE):    1.231419                   -22940.20    
                            ---------------------------------------------------------------------------
                                              [TOTAL]:    22945.29       mg          -22940.19       mg

                                                          NET (IN - OUT):    5.101562    
                                                   DISCREPANCY (PERCENT):   0.2223606E-01



 >>>>>>>>>>>>>>>>>>>>>>>>>>>>>>>>>>>>>>>>>>>>>>>>>>>>>>>FOR COMPONENT NO. 03<<<<<<<<<<<<<<<<<<<<<<<<<<<<<<<<<<<<<<<<<<<<<<<<<<<<<<<


                                            -------------------------------------------
                                                      TRANSPORT STEP NO.    1
                                            -------------------------------------------

 TOTAL ELAPSED TIME SINCE BEGINNING OF SIMULATION =   910.0000       d
 .....................................................................

                     CUMMULATIVE MASS BUDGETS AT END OF TRANSPORT STEP    1, TIME STEP    9, STRESS PERIOD    2
                     ------------------------------------------------------------------------------------------

                                                             IN                           OUT
                                                      ----------------             ----------------
                               CONSTANT CONCENTRATION:    0.000000                    0.000000    
                                        CONSTANT HEAD:    0.000000                    0.000000    
                                             RECHARGE:    984.3629                    0.000000    
                                   EVAPOTRANSPIRATION:    0.000000                   0.8834797E-03
                                MASS STORAGE (SOLUTE):   0.5880967E-01               -984.1461    
                            ---------------------------------------------------------------------------
                                              [TOTAL]:    984.4217       mg          -984.1452       mg

                                                          NET (IN - OUT):   0.2764893    
                                                   DISCREPANCY (PERCENT):   0.2809041E-01


                                          ================================================
                                                         TIME STEP NO.  010
                                          ================================================

 FROM TIME =   910.00     TO    1000.0    



     1 CALLS TO GCG PACKAGE FOR TRANSPORT TIME STEP   1 IN FLOW TIME STEP  10 STRESS PERIOD   2
     9 TOTAL ITERATIONS
  MAXIMUM CONCENTRATION CHANGES FOR EACH ITERATION:
  MAX. CHANGE LAYER,ROW,COL MAX. CHANGE LAYER,ROW,COL MAX. CHANGE LAYER,ROW,COL MAX. CHANGE LAYER,ROW,COL MAX. CHANGE LAYER,ROW,COL
 ------------------------------------------------------------------------------------------------------------------------------------
   0.8684E-01 (  1,211,124)  0.2649E-01 (  1,214,124)  0.1379E-01 (  1,209,124)  0.3953E-02 (  1,208,124)  0.1672E-02 (  1,208,126)
   0.7392E-03 (  1,209,126)  0.2408E-03 (  1,208,126)  0.1501E-03 (  1,131,254)  0.6974E-04 (  1,209,126)


     1 CALLS TO GCG PACKAGE FOR TRANSPORT TIME STEP   1 IN FLOW TIME STEP  10 STRESS PERIOD   2
     8 TOTAL ITERATIONS
  MAXIMUM CONCENTRATION CHANGES FOR EACH ITERATION:
  MAX. CHANGE LAYER,ROW,COL MAX. CHANGE LAYER,ROW,COL MAX. CHANGE LAYER,ROW,COL MAX. CHANGE LAYER,ROW,COL MAX. CHANGE LAYER,ROW,COL
 ------------------------------------------------------------------------------------------------------------------------------------
   0.1111     (  1,131,254)  0.2517E-01 (  1,127,254)  0.1177E-01 (  1,128,256)  0.3092E-02 (  1,134,253)  0.1286E-02 (  1,131,258)
   0.5600E-03 (  1,131,254)  0.1915E-03 (  1,126,255)  0.9298E-04 (  1,131,254)


     1 CALLS TO GCG PACKAGE FOR TRANSPORT TIME STEP   1 IN FLOW TIME STEP  10 STRESS PERIOD   2
     9 TOTAL ITERATIONS
  MAXIMUM CONCENTRATION CHANGES FOR EACH ITERATION:
  MAX. CHANGE LAYER,ROW,COL MAX. CHANGE LAYER,ROW,COL MAX. CHANGE LAYER,ROW,COL MAX. CHANGE LAYER,ROW,COL MAX. CHANGE LAYER,ROW,COL
 ------------------------------------------------------------------------------------------------------------------------------------
   0.8027E-01 (  1,191, 53)  0.2950E-01 (  1,192, 56)  0.1203E-01 (  1,189, 53)  0.3460E-02 (  1,190, 52)  0.1344E-02 (  1,190, 56)
   0.6739E-03 (  1,192, 53)  0.1996E-03 (  1,188, 54)  0.1249E-03 (  1,192, 53)  0.4870E-04 (  1,186, 52)



 >>>>>>>>>>>>>>>>>>>>>>>>>>>>>>>>>>>>>>>>>>>>>>>>>>>>>>>FOR COMPONENT NO. 01<<<<<<<<<<<<<<<<<<<<<<<<<<<<<<<<<<<<<<<<<<<<<<<<<<<<<<<


                                            -------------------------------------------
                                                      TRANSPORT STEP NO.    1
                                            -------------------------------------------

 TOTAL ELAPSED TIME SINCE BEGINNING OF SIMULATION =   1000.000       d
 .....................................................................

                     CUMMULATIVE MASS BUDGETS AT END OF TRANSPORT STEP    1, TIME STEP   10, STRESS PERIOD    2
                     ------------------------------------------------------------------------------------------

                                                             IN                           OUT
                                                      ----------------             ----------------
                               CONSTANT CONCENTRATION:    0.000000                    0.000000    
                                        CONSTANT HEAD:    0.000000                  -0.8121599E-31
                                             RECHARGE:    386767.6                    0.000000    
                                   EVAPOTRANSPIRATION:    0.000000                   0.1907400    
                                MASS STORAGE (SOLUTE):    24.85885                   -386724.9    
                            ---------------------------------------------------------------------------
                                              [TOTAL]:    386792.5       mg          -386724.7       mg

                                                          NET (IN - OUT):    67.78125    
                                                   DISCREPANCY (PERCENT):   0.1752547E-01



 >>>>>>>>>>>>>>>>>>>>>>>>>>>>>>>>>>>>>>>>>>>>>>>>>>>>>>>FOR COMPONENT NO. 02<<<<<<<<<<<<<<<<<<<<<<<<<<<<<<<<<<<<<<<<<<<<<<<<<<<<<<<


                                            -------------------------------------------
                                                      TRANSPORT STEP NO.    1
                                            -------------------------------------------

 TOTAL ELAPSED TIME SINCE BEGINNING OF SIMULATION =   1000.000       d
 .....................................................................

                     CUMMULATIVE MASS BUDGETS AT END OF TRANSPORT STEP    1, TIME STEP   10, STRESS PERIOD    2
                     ------------------------------------------------------------------------------------------

                                                             IN                           OUT
                                                      ----------------             ----------------
                               CONSTANT CONCENTRATION:    0.000000                    0.000000    
                                        CONSTANT HEAD:    0.000000                  -0.5854394E-32
                                             RECHARGE:    25213.26                    0.000000    
                                   EVAPOTRANSPIRATION:    0.000000                   0.6155433E-02
                                MASS STORAGE (SOLUTE):    1.556443                   -25208.37    
                            ---------------------------------------------------------------------------
                                              [TOTAL]:    25214.81       mg          -25208.36       mg

                                                          NET (IN - OUT):    6.449219    
                                                   DISCREPANCY (PERCENT):   0.2558037E-01



 >>>>>>>>>>>>>>>>>>>>>>>>>>>>>>>>>>>>>>>>>>>>>>>>>>>>>>>FOR COMPONENT NO. 03<<<<<<<<<<<<<<<<<<<<<<<<<<<<<<<<<<<<<<<<<<<<<<<<<<<<<<<


                                            -------------------------------------------
                                                      TRANSPORT STEP NO.    1
                                            -------------------------------------------

 TOTAL ELAPSED TIME SINCE BEGINNING OF SIMULATION =   1000.000       d
 .....................................................................

                     CUMMULATIVE MASS BUDGETS AT END OF TRANSPORT STEP    1, TIME STEP   10, STRESS PERIOD    2
                     ------------------------------------------------------------------------------------------

                                                             IN                           OUT
                                                      ----------------             ----------------
                               CONSTANT CONCENTRATION:    0.000000                    0.000000    
                                        CONSTANT HEAD:    0.000000                    0.000000    
                                             RECHARGE:    1081.717                    0.000000    
                                   EVAPOTRANSPIRATION:    0.000000                   0.1287943E-02
                                MASS STORAGE (SOLUTE):   0.7701141E-01               -1081.495    
                            ---------------------------------------------------------------------------
                                              [TOTAL]:    1081.794       mg          -1081.493       mg

                                                          NET (IN - OUT):   0.3012695    
                                                   DISCREPANCY (PERCENT):   0.2785293E-01


                                   ++++++++++++++++++++++++++++++++++++++++++++++++++++++++++++++
                                                       STRESS PERIOD NO.  003
                                   ++++++++++++++++++++++++++++++++++++++++++++++++++++++++++++++


 LENGTH OF CURRENT STRESS PERIOD =   9000.000    
 NUMBER OF TIME STEPS FOR CURRENT STRESS PERIOD =   10
 TIME STEP MULTIPLIER USED IN FLOW SOLUTION =   1.000000    

 ***Type of Transport Simulation is TRANSIENT

 USER-SPECIFIED TRANSPORT STEPSIZE =   0.000000       d
 MAXIMUM NUMBER OF TRANSPORT STEPS ALLOWED  IN ONE FLOW TIME STEP =      1000
 MULTIPLIER FOR SUCCESSIVE TRANSPORT STEPS  [USED IN IMPLICIT SCHEMES] =     1.000
 MAXIMUM TRANSPORT STEP SIZE  [USED IN IMPLICIT SCHEMES] =   0.000000       d

 CONCENTRATION OF RECHARGE FLUXES REUSED FROM LAST STRESS PERIOD

 CONCENTRATION OF E. T. FLUXES REUSED FROM LAST STRESS PERIOD

 NO. OF POINT SINKS/SOURCES OF SPECIFIED CONCONCENTRATIONS =    0 IN STRESS PERIOD  3


                                          ================================================
                                                         TIME STEP NO.  001
                                          ================================================

 FROM TIME =   1000.0     TO    1900.0    



     1 CALLS TO GCG PACKAGE FOR TRANSPORT TIME STEP   1 IN FLOW TIME STEP   1 STRESS PERIOD   3
    19 TOTAL ITERATIONS


     1 CALLS TO GCG PACKAGE FOR TRANSPORT TIME STEP   1 IN FLOW TIME STEP   1 STRESS PERIOD   3
    17 TOTAL ITERATIONS


     1 CALLS TO GCG PACKAGE FOR TRANSPORT TIME STEP   1 IN FLOW TIME STEP   1 STRESS PERIOD   3
    18 TOTAL ITERATIONS



 >>>>>>>>>>>>>>>>>>>>>>>>>>>>>>>>>>>>>>>>>>>>>>>>>>>>>>>FOR COMPONENT NO. 01<<<<<<<<<<<<<<<<<<<<<<<<<<<<<<<<<<<<<<<<<<<<<<<<<<<<<<<


                                            -------------------------------------------
                                                      TRANSPORT STEP NO.    1
                                            -------------------------------------------

 TOTAL ELAPSED TIME SINCE BEGINNING OF SIMULATION =   1383.466       d
 .....................................................................

                     CUMMULATIVE MASS BUDGETS AT END OF TRANSPORT STEP    1, TIME STEP    1, STRESS PERIOD    3
                     ------------------------------------------------------------------------------------------

                                                             IN                           OUT
                                                      ----------------             ----------------
                               CONSTANT CONCENTRATION:    0.000000                    0.000000    
                                        CONSTANT HEAD:    0.000000                  -0.1083112E-22
                                             RECHARGE:    535080.0                    0.000000    
                                   EVAPOTRANSPIRATION:    0.000000                   0.1937069    
                                MASS STORAGE (SOLUTE):    34.61053                   -534983.4    
                            ---------------------------------------------------------------------------
                                              [TOTAL]:    535114.6       mg          -534983.2       mg

                                                          NET (IN - OUT):    131.3750    
                                                   DISCREPANCY (PERCENT):   0.2455383E-01



 >>>>>>>>>>>>>>>>>>>>>>>>>>>>>>>>>>>>>>>>>>>>>>>>>>>>>>>FOR COMPONENT NO. 02<<<<<<<<<<<<<<<<<<<<<<<<<<<<<<<<<<<<<<<<<<<<<<<<<<<<<<<


                                            -------------------------------------------
                                                      TRANSPORT STEP NO.    1
                                            -------------------------------------------

 TOTAL ELAPSED TIME SINCE BEGINNING OF SIMULATION =   1383.466       d
 .....................................................................

                     CUMMULATIVE MASS BUDGETS AT END OF TRANSPORT STEP    1, TIME STEP    1, STRESS PERIOD    3
                     ------------------------------------------------------------------------------------------

                                                             IN                           OUT
                                                      ----------------             ----------------
                               CONSTANT CONCENTRATION:    0.000000                    0.000000    
                                        CONSTANT HEAD:    0.000000                  -0.7274047E-25
                                             RECHARGE:    34881.70                    0.000000    
                                   EVAPOTRANSPIRATION:    0.000000                   0.6488861E-02
                                MASS STORAGE (SOLUTE):    2.427622                   -34872.64    
                            ---------------------------------------------------------------------------
                                              [TOTAL]:    34884.12       mg          -34872.63       mg

                                                          NET (IN - OUT):    11.49219    
                                                   DISCREPANCY (PERCENT):   0.3294932E-01



 >>>>>>>>>>>>>>>>>>>>>>>>>>>>>>>>>>>>>>>>>>>>>>>>>>>>>>>FOR COMPONENT NO. 03<<<<<<<<<<<<<<<<<<<<<<<<<<<<<<<<<<<<<<<<<<<<<<<<<<<<<<<


                                            -------------------------------------------
                                                      TRANSPORT STEP NO.    1
                                            -------------------------------------------

 TOTAL ELAPSED TIME SINCE BEGINNING OF SIMULATION =   1383.466       d
 .....................................................................

                     CUMMULATIVE MASS BUDGETS AT END OF TRANSPORT STEP    1, TIME STEP    1, STRESS PERIOD    3
                     ------------------------------------------------------------------------------------------

                                                             IN                           OUT
                                                      ----------------             ----------------
                               CONSTANT CONCENTRATION:    0.000000                    0.000000    
                                        CONSTANT HEAD:    0.000000                   0.2145863E-35
                                             RECHARGE:    1496.520                    0.000000    
                                   EVAPOTRANSPIRATION:    0.000000                   0.1290951E-02
                                MASS STORAGE (SOLUTE):   0.7714064E-01               -1495.852    
                            ---------------------------------------------------------------------------
                                              [TOTAL]:    1496.597       mg          -1495.851       mg

                                                          NET (IN - OUT):   0.7459717    
                                                   DISCREPANCY (PERCENT):   0.4985696E-01
     1 CALLS TO GCG PACKAGE FOR TRANSPORT TIME STEP   2 IN FLOW TIME STEP   1 STRESS PERIOD   3
    18 TOTAL ITERATIONS
     1 CALLS TO GCG PACKAGE FOR TRANSPORT TIME STEP   2 IN FLOW TIME STEP   1 STRESS PERIOD   3
    17 TOTAL ITERATIONS
     1 CALLS TO GCG PACKAGE FOR TRANSPORT TIME STEP   2 IN FLOW TIME STEP   1 STRESS PERIOD   3
    17 TOTAL ITERATIONS



 >>>>>>>>>>>>>>>>>>>>>>>>>>>>>>>>>>>>>>>>>>>>>>>>>>>>>>>FOR COMPONENT NO. 01<<<<<<<<<<<<<<<<<<<<<<<<<<<<<<<<<<<<<<<<<<<<<<<<<<<<<<<


                                            -------------------------------------------
                                                      TRANSPORT STEP NO.    2
                                            -------------------------------------------

 TOTAL ELAPSED TIME SINCE BEGINNING OF SIMULATION =   1766.933       d
 .....................................................................

                     CUMMULATIVE MASS BUDGETS AT END OF TRANSPORT STEP    2, TIME STEP    1, STRESS PERIOD    3
                     ------------------------------------------------------------------------------------------

                                                             IN                           OUT
                                                      ----------------             ----------------
                               CONSTANT CONCENTRATION:    0.000000                    0.000000    
                                        CONSTANT HEAD:    0.000000                  -0.5635529E-19
                                             RECHARGE:    683392.4                    0.000000    
                                   EVAPOTRANSPIRATION:    0.000000                   0.1955852    
                                MASS STORAGE (SOLUTE):    47.15625                   -683238.6    
                            ---------------------------------------------------------------------------
                                              [TOTAL]:    683439.6       mg          -683238.4       mg

                                                          NET (IN - OUT):    201.1875    
                                                   DISCREPANCY (PERCENT):   0.2944183E-01



 >>>>>>>>>>>>>>>>>>>>>>>>>>>>>>>>>>>>>>>>>>>>>>>>>>>>>>>FOR COMPONENT NO. 02<<<<<<<<<<<<<<<<<<<<<<<<<<<<<<<<<<<<<<<<<<<<<<<<<<<<<<<


                                            -------------------------------------------
                                                      TRANSPORT STEP NO.    2
                                            -------------------------------------------

 TOTAL ELAPSED TIME SINCE BEGINNING OF SIMULATION =   1766.933       d
 .....................................................................

                     CUMMULATIVE MASS BUDGETS AT END OF TRANSPORT STEP    2, TIME STEP    1, STRESS PERIOD    3
                     ------------------------------------------------------------------------------------------

                                                             IN                           OUT
                                                      ----------------             ----------------
                               CONSTANT CONCENTRATION:    0.000000                    0.000000    
                                        CONSTANT HEAD:    0.000000                  -0.4325804E-21
                                             RECHARGE:    44550.13                    0.000000    
                                   EVAPOTRANSPIRATION:    0.000000                   0.6636421E-02
                                MASS STORAGE (SOLUTE):    3.554050                   -44537.26    
                            ---------------------------------------------------------------------------
                                              [TOTAL]:    44553.69       mg          -44537.25       mg

                                                          NET (IN - OUT):    16.43359    
                                                   DISCREPANCY (PERCENT):   0.3689173E-01



 >>>>>>>>>>>>>>>>>>>>>>>>>>>>>>>>>>>>>>>>>>>>>>>>>>>>>>>FOR COMPONENT NO. 03<<<<<<<<<<<<<<<<<<<<<<<<<<<<<<<<<<<<<<<<<<<<<<<<<<<<<<<


                                            -------------------------------------------
                                                      TRANSPORT STEP NO.    2
                                            -------------------------------------------

 TOTAL ELAPSED TIME SINCE BEGINNING OF SIMULATION =   1766.933       d
 .....................................................................

                     CUMMULATIVE MASS BUDGETS AT END OF TRANSPORT STEP    2, TIME STEP    1, STRESS PERIOD    3
                     ------------------------------------------------------------------------------------------

                                                             IN                           OUT
                                                      ----------------             ----------------
                               CONSTANT CONCENTRATION:    0.000000                    0.000000    
                                        CONSTANT HEAD:    0.000000                  -0.3348864E-31
                                             RECHARGE:    1911.322                    0.000000    
                                   EVAPOTRANSPIRATION:    0.000000                   0.1293623E-02
                                MASS STORAGE (SOLUTE):   0.7719876E-01               -1910.098    
                            ---------------------------------------------------------------------------
                                              [TOTAL]:    1911.399       mg          -1910.096       mg

                                                          NET (IN - OUT):    1.302856    
                                                   DISCREPANCY (PERCENT):   0.6818568E-01
     1 CALLS TO GCG PACKAGE FOR TRANSPORT TIME STEP   3 IN FLOW TIME STEP   1 STRESS PERIOD   3
    10 TOTAL ITERATIONS
  MAXIMUM CONCENTRATION CHANGES FOR EACH ITERATION:
  MAX. CHANGE LAYER,ROW,COL MAX. CHANGE LAYER,ROW,COL MAX. CHANGE LAYER,ROW,COL MAX. CHANGE LAYER,ROW,COL MAX. CHANGE LAYER,ROW,COL
 ------------------------------------------------------------------------------------------------------------------------------------
   0.6340E-01 (  1,211,124)  0.3557E-01 (  1,210,124)  0.1764E-01 (  1,210,121)  0.6723E-02 (  1,210,127)  0.3039E-02 (  1,209,127)
   0.1372E-02 (  1,209,126)  0.7391E-03 (  1,208,126)  0.3482E-03 (  1,213,129)  0.1842E-03 (  1,206,122)  0.9668E-04 (  1,210,126)
     1 CALLS TO GCG PACKAGE FOR TRANSPORT TIME STEP   3 IN FLOW TIME STEP   1 STRESS PERIOD   3
     9 TOTAL ITERATIONS
  MAXIMUM CONCENTRATION CHANGES FOR EACH ITERATION:
  MAX. CHANGE LAYER,ROW,COL MAX. CHANGE LAYER,ROW,COL MAX. CHANGE LAYER,ROW,COL MAX. CHANGE LAYER,ROW,COL MAX. CHANGE LAYER,ROW,COL
 ------------------------------------------------------------------------------------------------------------------------------------
   0.1049     (  1,131,254)  0.2807E-01 (  1,129,256)  0.1418E-01 (  1,131,254)  0.4602E-02 (  1,128,252)  0.2483E-02 (  1,131,254)
   0.8590E-03 (  1,131,259)  0.3836E-03 (  1,131,249)  0.1819E-03 (  1,131,256)  0.9477E-04 (  1,128,255)
     1 CALLS TO GCG PACKAGE FOR TRANSPORT TIME STEP   3 IN FLOW TIME STEP   1 STRESS PERIOD   3
    10 TOTAL ITERATIONS
  MAXIMUM CONCENTRATION CHANGES FOR EACH ITERATION:
  MAX. CHANGE LAYER,ROW,COL MAX. CHANGE LAYER,ROW,COL MAX. CHANGE LAYER,ROW,COL MAX. CHANGE LAYER,ROW,COL MAX. CHANGE LAYER,ROW,COL
 ------------------------------------------------------------------------------------------------------------------------------------
   0.5605E-01 (  1,193, 55)  0.3921E-01 (  1,190, 53)  0.1975E-01 (  1,190, 51)  0.6678E-02 (  1,190, 57)  0.3071E-02 (  1,192, 53)
   0.1116E-02 (  1,189, 54)  0.5882E-03 (  1,188, 54)  0.2200E-03 (  2,190, 54)  0.1282E-03 (  2,189, 54)  0.7325E-04 (  1,190, 56)



 >>>>>>>>>>>>>>>>>>>>>>>>>>>>>>>>>>>>>>>>>>>>>>>>>>>>>>>FOR COMPONENT NO. 01<<<<<<<<<<<<<<<<<<<<<<<<<<<<<<<<<<<<<<<<<<<<<<<<<<<<<<<


                                            -------------------------------------------
                                                      TRANSPORT STEP NO.    3
                                            -------------------------------------------

 TOTAL ELAPSED TIME SINCE BEGINNING OF SIMULATION =   1900.000       d
 .....................................................................

                     CUMMULATIVE MASS BUDGETS AT END OF TRANSPORT STEP    3, TIME STEP    1, STRESS PERIOD    3
                     ------------------------------------------------------------------------------------------

                                                             IN                           OUT
                                                      ----------------             ----------------
                               CONSTANT CONCENTRATION:    0.000000                    0.000000    
                                        CONSTANT HEAD:    0.000000                  -0.9588435E-19
                                             RECHARGE:    734858.4                    0.000000    
                                   EVAPOTRANSPIRATION:    0.000000                   0.1977068    
                                MASS STORAGE (SOLUTE):    108.6391                   -734729.9    
                            ---------------------------------------------------------------------------
                                              [TOTAL]:    734967.1       mg          -734729.8       mg

                                                          NET (IN - OUT):    237.3125    
                                                   DISCREPANCY (PERCENT):   0.3229408E-01



 >>>>>>>>>>>>>>>>>>>>>>>>>>>>>>>>>>>>>>>>>>>>>>>>>>>>>>>FOR COMPONENT NO. 02<<<<<<<<<<<<<<<<<<<<<<<<<<<<<<<<<<<<<<<<<<<<<<<<<<<<<<<


                                            -------------------------------------------
                                                      TRANSPORT STEP NO.    3
                                            -------------------------------------------

 TOTAL ELAPSED TIME SINCE BEGINNING OF SIMULATION =   1900.000       d
 .....................................................................

                     CUMMULATIVE MASS BUDGETS AT END OF TRANSPORT STEP    3, TIME STEP    1, STRESS PERIOD    3
                     ------------------------------------------------------------------------------------------

                                                             IN                           OUT
                                                      ----------------             ----------------
                               CONSTANT CONCENTRATION:    0.000000                    0.000000    
                                        CONSTANT HEAD:    0.000000                  -0.4990323E-21
                                             RECHARGE:    47905.19                    0.000000    
                                   EVAPOTRANSPIRATION:    0.000000                   0.6850521E-02
                                MASS STORAGE (SOLUTE):    6.222260                   -47891.07    
                            ---------------------------------------------------------------------------
                                              [TOTAL]:    47911.41       mg          -47891.07       mg

                                                          NET (IN - OUT):    20.34375    
                                                   DISCREPANCY (PERCENT):   0.4247020E-01



 >>>>>>>>>>>>>>>>>>>>>>>>>>>>>>>>>>>>>>>>>>>>>>>>>>>>>>>FOR COMPONENT NO. 03<<<<<<<<<<<<<<<<<<<<<<<<<<<<<<<<<<<<<<<<<<<<<<<<<<<<<<<


                                            -------------------------------------------
                                                      TRANSPORT STEP NO.    3
                                            -------------------------------------------

 TOTAL ELAPSED TIME SINCE BEGINNING OF SIMULATION =   1900.000       d
 .....................................................................

                     CUMMULATIVE MASS BUDGETS AT END OF TRANSPORT STEP    3, TIME STEP    1, STRESS PERIOD    3
                     ------------------------------------------------------------------------------------------

                                                             IN                           OUT
                                                      ----------------             ----------------
                               CONSTANT CONCENTRATION:    0.000000                    0.000000    
                                        CONSTANT HEAD:    0.000000                  -0.3712493E-31
                                             RECHARGE:    2055.263                    0.000000    
                                   EVAPOTRANSPIRATION:    0.000000                   0.1294409E-02
                                MASS STORAGE (SOLUTE):   0.5087253                   -2054.387    
                            ---------------------------------------------------------------------------
                                              [TOTAL]:    2055.772       mg          -2054.386       mg

                                                          NET (IN - OUT):    1.386230    
                                                   DISCREPANCY (PERCENT):   0.6745388E-01


                                          ================================================
                                                         TIME STEP NO.  002
                                          ================================================

 FROM TIME =   1900.0     TO    2800.0    



     1 CALLS TO GCG PACKAGE FOR TRANSPORT TIME STEP   1 IN FLOW TIME STEP   2 STRESS PERIOD   3
    18 TOTAL ITERATIONS


     1 CALLS TO GCG PACKAGE FOR TRANSPORT TIME STEP   1 IN FLOW TIME STEP   2 STRESS PERIOD   3
    17 TOTAL ITERATIONS


     1 CALLS TO GCG PACKAGE FOR TRANSPORT TIME STEP   1 IN FLOW TIME STEP   2 STRESS PERIOD   3
    17 TOTAL ITERATIONS



 >>>>>>>>>>>>>>>>>>>>>>>>>>>>>>>>>>>>>>>>>>>>>>>>>>>>>>>FOR COMPONENT NO. 01<<<<<<<<<<<<<<<<<<<<<<<<<<<<<<<<<<<<<<<<<<<<<<<<<<<<<<<


                                            -------------------------------------------
                                                      TRANSPORT STEP NO.    1
                                            -------------------------------------------

 TOTAL ELAPSED TIME SINCE BEGINNING OF SIMULATION =   2283.467       d
 .....................................................................

                     CUMMULATIVE MASS BUDGETS AT END OF TRANSPORT STEP    1, TIME STEP    2, STRESS PERIOD    3
                     ------------------------------------------------------------------------------------------

                                                             IN                           OUT
                                                      ----------------             ----------------
                               CONSTANT CONCENTRATION:    0.000000                    0.000000    
                                        CONSTANT HEAD:    0.000000                  -0.5129686E-17
                                             RECHARGE:    883170.8                    0.000000    
                                   EVAPOTRANSPIRATION:    0.000000                   0.2050672    
                                MASS STORAGE (SOLUTE):    123.1390                   -882996.1    
                            ---------------------------------------------------------------------------
                                              [TOTAL]:    883293.9       mg          -882995.9       mg

                                                          NET (IN - OUT):    298.0000    
                                                   DISCREPANCY (PERCENT):   0.3374305E-01



 >>>>>>>>>>>>>>>>>>>>>>>>>>>>>>>>>>>>>>>>>>>>>>>>>>>>>>>FOR COMPONENT NO. 02<<<<<<<<<<<<<<<<<<<<<<<<<<<<<<<<<<<<<<<<<<<<<<<<<<<<<<<


                                            -------------------------------------------
                                                      TRANSPORT STEP NO.    1
                                            -------------------------------------------

 TOTAL ELAPSED TIME SINCE BEGINNING OF SIMULATION =   2283.467       d
 .....................................................................

                     CUMMULATIVE MASS BUDGETS AT END OF TRANSPORT STEP    1, TIME STEP    2, STRESS PERIOD    3
                     ------------------------------------------------------------------------------------------

                                                             IN                           OUT
                                                      ----------------             ----------------
                               CONSTANT CONCENTRATION:    0.000000                    0.000000    
                                        CONSTANT HEAD:    0.000000                  -0.5984547E-19
                                             RECHARGE:    57573.62                    0.000000    
                                   EVAPOTRANSPIRATION:    0.000000                   0.7568480E-02
                                MASS STORAGE (SOLUTE):    7.525340                   -57555.13    
                            ---------------------------------------------------------------------------
                                              [TOTAL]:    57581.15       mg          -57555.12       mg

                                                          NET (IN - OUT):    26.02344    
                                                   DISCREPANCY (PERCENT):   0.4520458E-01



 >>>>>>>>>>>>>>>>>>>>>>>>>>>>>>>>>>>>>>>>>>>>>>>>>>>>>>>FOR COMPONENT NO. 03<<<<<<<<<<<<<<<<<<<<<<<<<<<<<<<<<<<<<<<<<<<<<<<<<<<<<<<


                                            -------------------------------------------
                                                      TRANSPORT STEP NO.    1
                                            -------------------------------------------

 TOTAL ELAPSED TIME SINCE BEGINNING OF SIMULATION =   2283.467       d
 .....................................................................

                     CUMMULATIVE MASS BUDGETS AT END OF TRANSPORT STEP    1, TIME STEP    2, STRESS PERIOD    3
                     ------------------------------------------------------------------------------------------

                                                             IN                           OUT
                                                      ----------------             ----------------
                               CONSTANT CONCENTRATION:    0.000000                    0.000000    
                                        CONSTANT HEAD:    0.000000                  -0.2077415E-27
                                             RECHARGE:    2470.065                    0.000000    
                                   EVAPOTRANSPIRATION:    0.000000                   0.1297678E-02
                                MASS STORAGE (SOLUTE):   0.5087692                   -2468.680    
                            ---------------------------------------------------------------------------
                                              [TOTAL]:    2470.574       mg          -2468.678       mg

                                                          NET (IN - OUT):    1.895752    
                                                   DISCREPANCY (PERCENT):   0.7676270E-01
     1 CALLS TO GCG PACKAGE FOR TRANSPORT TIME STEP   2 IN FLOW TIME STEP   2 STRESS PERIOD   3
    18 TOTAL ITERATIONS
     1 CALLS TO GCG PACKAGE FOR TRANSPORT TIME STEP   2 IN FLOW TIME STEP   2 STRESS PERIOD   3
    17 TOTAL ITERATIONS
     1 CALLS TO GCG PACKAGE FOR TRANSPORT TIME STEP   2 IN FLOW TIME STEP   2 STRESS PERIOD   3
    17 TOTAL ITERATIONS



 >>>>>>>>>>>>>>>>>>>>>>>>>>>>>>>>>>>>>>>>>>>>>>>>>>>>>>>FOR COMPONENT NO. 01<<<<<<<<<<<<<<<<<<<<<<<<<<<<<<<<<<<<<<<<<<<<<<<<<<<<<<<


                                            -------------------------------------------
                                                      TRANSPORT STEP NO.    2
                                            -------------------------------------------

 TOTAL ELAPSED TIME SINCE BEGINNING OF SIMULATION =   2666.933       d
 .....................................................................

                     CUMMULATIVE MASS BUDGETS AT END OF TRANSPORT STEP    2, TIME STEP    2, STRESS PERIOD    3
                     ------------------------------------------------------------------------------------------

                                                             IN                           OUT
                                                      ----------------             ----------------
                               CONSTANT CONCENTRATION:    0.000000                    0.000000    
                                        CONSTANT HEAD:    0.000000                  -0.9508544E-17
                                             RECHARGE:    1031483.                    0.000000    
                                   EVAPOTRANSPIRATION:    0.000000                   0.2112634    
                                MASS STORAGE (SOLUTE):    138.2687                   -1031269.    
                            ---------------------------------------------------------------------------
                                              [TOTAL]:    1031621.       mg          -1031269.       mg

                                                          NET (IN - OUT):    352.7500    
                                                   DISCREPANCY (PERCENT):   0.3419959E-01



 >>>>>>>>>>>>>>>>>>>>>>>>>>>>>>>>>>>>>>>>>>>>>>>>>>>>>>>FOR COMPONENT NO. 02<<<<<<<<<<<<<<<<<<<<<<<<<<<<<<<<<<<<<<<<<<<<<<<<<<<<<<<


                                            -------------------------------------------
                                                      TRANSPORT STEP NO.    2
                                            -------------------------------------------

 TOTAL ELAPSED TIME SINCE BEGINNING OF SIMULATION =   2666.933       d
 .....................................................................

                     CUMMULATIVE MASS BUDGETS AT END OF TRANSPORT STEP    2, TIME STEP    2, STRESS PERIOD    3
                     ------------------------------------------------------------------------------------------

                                                             IN                           OUT
                                                      ----------------             ----------------
                               CONSTANT CONCENTRATION:    0.000000                    0.000000    
                                        CONSTANT HEAD:    0.000000                  -0.3361502E-18
                                             RECHARGE:    67242.06                    0.000000    
                                   EVAPOTRANSPIRATION:    0.000000                   0.8041450E-02
                                MASS STORAGE (SOLUTE):    8.885809                   -67219.16    
                            ---------------------------------------------------------------------------
                                              [TOTAL]:    67250.95       mg          -67219.15       mg

                                                          NET (IN - OUT):    31.79688    
                                                   DISCREPANCY (PERCENT):   0.4729211E-01



 >>>>>>>>>>>>>>>>>>>>>>>>>>>>>>>>>>>>>>>>>>>>>>>>>>>>>>>FOR COMPONENT NO. 03<<<<<<<<<<<<<<<<<<<<<<<<<<<<<<<<<<<<<<<<<<<<<<<<<<<<<<<


                                            -------------------------------------------
                                                      TRANSPORT STEP NO.    2
                                            -------------------------------------------

 TOTAL ELAPSED TIME SINCE BEGINNING OF SIMULATION =   2666.933       d
 .....................................................................

                     CUMMULATIVE MASS BUDGETS AT END OF TRANSPORT STEP    2, TIME STEP    2, STRESS PERIOD    3
                     ------------------------------------------------------------------------------------------

                                                             IN                           OUT
                                                      ----------------             ----------------
                               CONSTANT CONCENTRATION:    0.000000                    0.000000    
                                        CONSTANT HEAD:    0.000000                  -0.2501031E-25
                                             RECHARGE:    2884.868                    0.000000    
                                   EVAPOTRANSPIRATION:    0.000000                   0.1301684E-02
                                MASS STORAGE (SOLUTE):   0.5088124                   -2883.009    
                            ---------------------------------------------------------------------------
                                              [TOTAL]:    2885.376       mg          -2883.007       mg

                                                          NET (IN - OUT):    2.369141    
                                                   DISCREPANCY (PERCENT):   0.8214227E-01
     1 CALLS TO GCG PACKAGE FOR TRANSPORT TIME STEP   3 IN FLOW TIME STEP   2 STRESS PERIOD   3
    10 TOTAL ITERATIONS
  MAXIMUM CONCENTRATION CHANGES FOR EACH ITERATION:
  MAX. CHANGE LAYER,ROW,COL MAX. CHANGE LAYER,ROW,COL MAX. CHANGE LAYER,ROW,COL MAX. CHANGE LAYER,ROW,COL MAX. CHANGE LAYER,ROW,COL
 ------------------------------------------------------------------------------------------------------------------------------------
   0.5473E-01 (  1,211,124)  0.3446E-01 (  1,210,124)  0.1585E-01 (  1,210,121)  0.6584E-02 (  1,210,127)  0.2798E-02 (  1,209,127)
   0.1200E-02 (  1,208,127)  0.6588E-03 (  1,208,126)  0.2946E-03 (  1,213,129)  0.1563E-03 (  1,206,122)  0.7665E-04 (  1,209,127)
     1 CALLS TO GCG PACKAGE FOR TRANSPORT TIME STEP   3 IN FLOW TIME STEP   2 STRESS PERIOD   3
     9 TOTAL ITERATIONS
  MAXIMUM CONCENTRATION CHANGES FOR EACH ITERATION:
  MAX. CHANGE LAYER,ROW,COL MAX. CHANGE LAYER,ROW,COL MAX. CHANGE LAYER,ROW,COL MAX. CHANGE LAYER,ROW,COL MAX. CHANGE LAYER,ROW,COL
 ------------------------------------------------------------------------------------------------------------------------------------
   0.9142E-01 (  1,131,254)  0.2630E-01 (  1,129,256)  0.1207E-01 (  1,131,254)  0.4236E-02 (  1,128,252)  0.2321E-02 (  1,131,254)
   0.8026E-03 (  1,126,255)  0.3316E-03 (  1,131,249)  0.1624E-03 (  1,131,256)  0.6998E-04 (  1,128,255)
     1 CALLS TO GCG PACKAGE FOR TRANSPORT TIME STEP   3 IN FLOW TIME STEP   2 STRESS PERIOD   3
    10 TOTAL ITERATIONS
  MAXIMUM CONCENTRATION CHANGES FOR EACH ITERATION:
  MAX. CHANGE LAYER,ROW,COL MAX. CHANGE LAYER,ROW,COL MAX. CHANGE LAYER,ROW,COL MAX. CHANGE LAYER,ROW,COL MAX. CHANGE LAYER,ROW,COL
 ------------------------------------------------------------------------------------------------------------------------------------
   0.5417E-01 (  1,193, 55)  0.3714E-01 (  1,190, 53)  0.1813E-01 (  1,190, 51)  0.6562E-02 (  1,190, 57)  0.2834E-02 (  1,192, 53)
   0.8969E-03 (  1,191, 53)  0.5180E-03 (  1,188, 54)  0.2184E-03 (  1,189, 54)  0.1005E-03 (  2,190, 53)  0.6580E-04 (  1,193, 53)



 >>>>>>>>>>>>>>>>>>>>>>>>>>>>>>>>>>>>>>>>>>>>>>>>>>>>>>>FOR COMPONENT NO. 01<<<<<<<<<<<<<<<<<<<<<<<<<<<<<<<<<<<<<<<<<<<<<<<<<<<<<<<


                                            -------------------------------------------
                                                      TRANSPORT STEP NO.    3
                                            -------------------------------------------

 TOTAL ELAPSED TIME SINCE BEGINNING OF SIMULATION =   2800.000       d
 .....................................................................

                     CUMMULATIVE MASS BUDGETS AT END OF TRANSPORT STEP    3, TIME STEP    2, STRESS PERIOD    3
                     ------------------------------------------------------------------------------------------

                                                             IN                           OUT
                                                      ----------------             ----------------
                               CONSTANT CONCENTRATION:    0.000000                    0.000000    
                                        CONSTANT HEAD:    0.000000                  -0.1053382E-16
                                             RECHARGE:    1082949.                    0.000000    
                                   EVAPOTRANSPIRATION:    0.000000                   0.2149055    
                                MASS STORAGE (SOLUTE):    705.5087                   -1083260.    
                            ---------------------------------------------------------------------------
                                              [TOTAL]:    1083655.       mg          -1083260.       mg

                                                          NET (IN - OUT):    394.8750    
                                                   DISCREPANCY (PERCENT):   0.3644583E-01



 >>>>>>>>>>>>>>>>>>>>>>>>>>>>>>>>>>>>>>>>>>>>>>>>>>>>>>>FOR COMPONENT NO. 02<<<<<<<<<<<<<<<<<<<<<<<<<<<<<<<<<<<<<<<<<<<<<<<<<<<<<<<


                                            -------------------------------------------
                                                      TRANSPORT STEP NO.    3
                                            -------------------------------------------

 TOTAL ELAPSED TIME SINCE BEGINNING OF SIMULATION =   2800.000       d
 .....................................................................

                     CUMMULATIVE MASS BUDGETS AT END OF TRANSPORT STEP    3, TIME STEP    2, STRESS PERIOD    3
                     ------------------------------------------------------------------------------------------

                                                             IN                           OUT
                                                      ----------------             ----------------
                               CONSTANT CONCENTRATION:    0.000000                    0.000000    
                                        CONSTANT HEAD:    0.000000                  -0.4501499E-18
                                             RECHARGE:    70597.11                    0.000000    
                                   EVAPOTRANSPIRATION:    0.000000                   0.8383345E-02
                                MASS STORAGE (SOLUTE):    42.88058                   -70603.92    
                            ---------------------------------------------------------------------------
                                              [TOTAL]:    70639.99       mg          -70603.91       mg

                                                          NET (IN - OUT):    36.07812    
                                                   DISCREPANCY (PERCENT):   0.5108627E-01



 >>>>>>>>>>>>>>>>>>>>>>>>>>>>>>>>>>>>>>>>>>>>>>>>>>>>>>>FOR COMPONENT NO. 03<<<<<<<<<<<<<<<<<<<<<<<<<<<<<<<<<<<<<<<<<<<<<<<<<<<<<<<


                                            -------------------------------------------
                                                      TRANSPORT STEP NO.    3
                                            -------------------------------------------

 TOTAL ELAPSED TIME SINCE BEGINNING OF SIMULATION =   2800.000       d
 .....................................................................

                     CUMMULATIVE MASS BUDGETS AT END OF TRANSPORT STEP    3, TIME STEP    2, STRESS PERIOD    3
                     ------------------------------------------------------------------------------------------

                                                             IN                           OUT
                                                      ----------------             ----------------
                               CONSTANT CONCENTRATION:    0.000000                    0.000000    
                                        CONSTANT HEAD:    0.000000                  -0.3871401E-25
                                             RECHARGE:    3028.809                    0.000000    
                                   EVAPOTRANSPIRATION:    0.000000                   0.1302922E-02
                                MASS STORAGE (SOLUTE):    2.804007                   -3029.150    
                            ---------------------------------------------------------------------------
                                              [TOTAL]:    3031.613       mg          -3029.149       mg

                                                          NET (IN - OUT):    2.463867    
                                                   DISCREPANCY (PERCENT):   0.8130553E-01


                                          ================================================
                                                         TIME STEP NO.  003
                                          ================================================

 FROM TIME =   2800.0     TO    3700.0    



     1 CALLS TO GCG PACKAGE FOR TRANSPORT TIME STEP   1 IN FLOW TIME STEP   3 STRESS PERIOD   3
    18 TOTAL ITERATIONS


     1 CALLS TO GCG PACKAGE FOR TRANSPORT TIME STEP   1 IN FLOW TIME STEP   3 STRESS PERIOD   3
    17 TOTAL ITERATIONS


     1 CALLS TO GCG PACKAGE FOR TRANSPORT TIME STEP   1 IN FLOW TIME STEP   3 STRESS PERIOD   3
    17 TOTAL ITERATIONS



 >>>>>>>>>>>>>>>>>>>>>>>>>>>>>>>>>>>>>>>>>>>>>>>>>>>>>>>FOR COMPONENT NO. 01<<<<<<<<<<<<<<<<<<<<<<<<<<<<<<<<<<<<<<<<<<<<<<<<<<<<<<<


                                            -------------------------------------------
                                                      TRANSPORT STEP NO.    1
                                            -------------------------------------------

 TOTAL ELAPSED TIME SINCE BEGINNING OF SIMULATION =   3183.467       d
 .....................................................................

                     CUMMULATIVE MASS BUDGETS AT END OF TRANSPORT STEP    1, TIME STEP    3, STRESS PERIOD    3
                     ------------------------------------------------------------------------------------------

                                                             IN                           OUT
                                                      ----------------             ----------------
                               CONSTANT CONCENTRATION:    0.000000                    0.000000    
                                        CONSTANT HEAD:    0.000000                  -0.2544820E-16
                                             RECHARGE:    1231262.                    0.000000    
                                   EVAPOTRANSPIRATION:    0.000000                   0.2223823    
                                MASS STORAGE (SOLUTE):    720.5922                   -1231538.    
                            ---------------------------------------------------------------------------
                                              [TOTAL]:    1231982.       mg          -1231538.       mg

                                                          NET (IN - OUT):    444.0000    
                                                   DISCREPANCY (PERCENT):   0.3604598E-01



 >>>>>>>>>>>>>>>>>>>>>>>>>>>>>>>>>>>>>>>>>>>>>>>>>>>>>>>FOR COMPONENT NO. 02<<<<<<<<<<<<<<<<<<<<<<<<<<<<<<<<<<<<<<<<<<<<<<<<<<<<<<<


                                            -------------------------------------------
                                                      TRANSPORT STEP NO.    1
                                            -------------------------------------------

 TOTAL ELAPSED TIME SINCE BEGINNING OF SIMULATION =   3183.467       d
 .....................................................................

                     CUMMULATIVE MASS BUDGETS AT END OF TRANSPORT STEP    1, TIME STEP    3, STRESS PERIOD    3
                     ------------------------------------------------------------------------------------------

                                                             IN                           OUT
                                                      ----------------             ----------------
                               CONSTANT CONCENTRATION:    0.000000                    0.000000    
                                        CONSTANT HEAD:    0.000000                  -0.2388693E-17
                                             RECHARGE:    80265.55                    0.000000    
                                   EVAPOTRANSPIRATION:    0.000000                   0.8969300E-02
                                MASS STORAGE (SOLUTE):    44.23714                   -80267.18    
                            ---------------------------------------------------------------------------
                                              [TOTAL]:    80309.78       mg          -80267.17       mg

                                                          NET (IN - OUT):    42.60938    
                                                   DISCREPANCY (PERCENT):   0.5307035E-01



 >>>>>>>>>>>>>>>>>>>>>>>>>>>>>>>>>>>>>>>>>>>>>>>>>>>>>>>FOR COMPONENT NO. 03<<<<<<<<<<<<<<<<<<<<<<<<<<<<<<<<<<<<<<<<<<<<<<<<<<<<<<<


                                            -------------------------------------------
                                                      TRANSPORT STEP NO.    1
                                            -------------------------------------------

 TOTAL ELAPSED TIME SINCE BEGINNING OF SIMULATION =   3183.467       d
 .....................................................................

                     CUMMULATIVE MASS BUDGETS AT END OF TRANSPORT STEP    1, TIME STEP    3, STRESS PERIOD    3
                     ------------------------------------------------------------------------------------------

                                                             IN                           OUT
                                                      ----------------             ----------------
                               CONSTANT CONCENTRATION:    0.000000                    0.000000    
                                        CONSTANT HEAD:    0.000000                  -0.4505692E-24
                                             RECHARGE:    3443.611                    0.000000    
                                   EVAPOTRANSPIRATION:    0.000000                   0.1307295E-02
                                MASS STORAGE (SOLUTE):    2.804698                   -3443.479    
                            ---------------------------------------------------------------------------
                                              [TOTAL]:    3446.416       mg          -3443.478       mg

                                                          NET (IN - OUT):    2.937744    
                                                   DISCREPANCY (PERCENT):   0.8527691E-01
     1 CALLS TO GCG PACKAGE FOR TRANSPORT TIME STEP   2 IN FLOW TIME STEP   3 STRESS PERIOD   3
    18 TOTAL ITERATIONS
     1 CALLS TO GCG PACKAGE FOR TRANSPORT TIME STEP   2 IN FLOW TIME STEP   3 STRESS PERIOD   3
    16 TOTAL ITERATIONS
     1 CALLS TO GCG PACKAGE FOR TRANSPORT TIME STEP   2 IN FLOW TIME STEP   3 STRESS PERIOD   3
    16 TOTAL ITERATIONS



 >>>>>>>>>>>>>>>>>>>>>>>>>>>>>>>>>>>>>>>>>>>>>>>>>>>>>>>FOR COMPONENT NO. 01<<<<<<<<<<<<<<<<<<<<<<<<<<<<<<<<<<<<<<<<<<<<<<<<<<<<<<<


                                            -------------------------------------------
                                                      TRANSPORT STEP NO.    2
                                            -------------------------------------------

 TOTAL ELAPSED TIME SINCE BEGINNING OF SIMULATION =   3566.933       d
 .....................................................................

                     CUMMULATIVE MASS BUDGETS AT END OF TRANSPORT STEP    2, TIME STEP    3, STRESS PERIOD    3
                     ------------------------------------------------------------------------------------------

                                                             IN                           OUT
                                                      ----------------             ----------------
                               CONSTANT CONCENTRATION:    0.000000                    0.000000    
                                        CONSTANT HEAD:    0.000000                  -0.1112415E-15
                                             RECHARGE:    1379574.                    0.000000    
                                   EVAPOTRANSPIRATION:    0.000000                   0.2237983    
                                MASS STORAGE (SOLUTE):    735.6328                   -1379821.    
                            ---------------------------------------------------------------------------
                                              [TOTAL]:    1380310.       mg          -1379821.       mg

                                                          NET (IN - OUT):    488.5000    
                                                   DISCREPANCY (PERCENT):   0.3539688E-01



 >>>>>>>>>>>>>>>>>>>>>>>>>>>>>>>>>>>>>>>>>>>>>>>>>>>>>>>FOR COMPONENT NO. 02<<<<<<<<<<<<<<<<<<<<<<<<<<<<<<<<<<<<<<<<<<<<<<<<<<<<<<<


                                            -------------------------------------------
                                                      TRANSPORT STEP NO.    2
                                            -------------------------------------------

 TOTAL ELAPSED TIME SINCE BEGINNING OF SIMULATION =   3566.933       d
 .....................................................................

                     CUMMULATIVE MASS BUDGETS AT END OF TRANSPORT STEP    2, TIME STEP    3, STRESS PERIOD    3
                     ------------------------------------------------------------------------------------------

                                                             IN                           OUT
                                                      ----------------             ----------------
                               CONSTANT CONCENTRATION:    0.000000                    0.000000    
                                        CONSTANT HEAD:    0.000000                  -0.1134484E-16
                                             RECHARGE:    89933.98                    0.000000    
                                   EVAPOTRANSPIRATION:    0.000000                   0.8995970E-02
                                MASS STORAGE (SOLUTE):    45.58614                   -89925.84    
                            ---------------------------------------------------------------------------
                                              [TOTAL]:    89979.57       mg          -89925.84       mg

                                                          NET (IN - OUT):    53.73438    
                                                   DISCREPANCY (PERCENT):   0.5973626E-01



 >>>>>>>>>>>>>>>>>>>>>>>>>>>>>>>>>>>>>>>>>>>>>>>>>>>>>>>FOR COMPONENT NO. 03<<<<<<<<<<<<<<<<<<<<<<<<<<<<<<<<<<<<<<<<<<<<<<<<<<<<<<<


                                            -------------------------------------------
                                                      TRANSPORT STEP NO.    2
                                            -------------------------------------------

 TOTAL ELAPSED TIME SINCE BEGINNING OF SIMULATION =   3566.933       d
 .....................................................................

                     CUMMULATIVE MASS BUDGETS AT END OF TRANSPORT STEP    2, TIME STEP    3, STRESS PERIOD    3
                     ------------------------------------------------------------------------------------------

                                                             IN                           OUT
                                                      ----------------             ----------------
                               CONSTANT CONCENTRATION:    0.000000                    0.000000    
                                        CONSTANT HEAD:    0.000000                  -0.3009025E-23
                                             RECHARGE:    3858.413                    0.000000    
                                   EVAPOTRANSPIRATION:    0.000000                   0.1315010E-02
                                MASS STORAGE (SOLUTE):    2.806693                   -3857.557    
                            ---------------------------------------------------------------------------
                                              [TOTAL]:    3861.220       mg          -3857.555       mg

                                                          NET (IN - OUT):    3.664307    
                                                   DISCREPANCY (PERCENT):   0.9494528E-01
     1 CALLS TO GCG PACKAGE FOR TRANSPORT TIME STEP   3 IN FLOW TIME STEP   3 STRESS PERIOD   3
    10 TOTAL ITERATIONS
  MAXIMUM CONCENTRATION CHANGES FOR EACH ITERATION:
  MAX. CHANGE LAYER,ROW,COL MAX. CHANGE LAYER,ROW,COL MAX. CHANGE LAYER,ROW,COL MAX. CHANGE LAYER,ROW,COL MAX. CHANGE LAYER,ROW,COL
 ------------------------------------------------------------------------------------------------------------------------------------
   0.5238E-01 (  1,213,127)  0.3427E-01 (  1,210,124)  0.1484E-01 (  1,210,121)  0.6580E-02 (  1,210,127)  0.2731E-02 (  1,209,127)
   0.1108E-02 (  1,208,127)  0.5985E-03 (  1,208,126)  0.2602E-03 (  1,213,129)  0.1372E-03 (  1,206,122)  0.6884E-04 (  1,205,122)
     1 CALLS TO GCG PACKAGE FOR TRANSPORT TIME STEP   3 IN FLOW TIME STEP   3 STRESS PERIOD   3
     9 TOTAL ITERATIONS
  MAXIMUM CONCENTRATION CHANGES FOR EACH ITERATION:
  MAX. CHANGE LAYER,ROW,COL MAX. CHANGE LAYER,ROW,COL MAX. CHANGE LAYER,ROW,COL MAX. CHANGE LAYER,ROW,COL MAX. CHANGE LAYER,ROW,COL
 ------------------------------------------------------------------------------------------------------------------------------------
   0.8532E-01 (  1,131,254)  0.2551E-01 (  1,129,256)  0.1100E-01 (  1,131,254)  0.4052E-02 (  1,128,252)  0.2203E-02 (  1,131,254)
   0.7729E-03 (  1,126,255)  0.3031E-03 (  1,131,254)  0.1483E-03 (  1,131,256)  0.6020E-04 (  1,132,254)
     1 CALLS TO GCG PACKAGE FOR TRANSPORT TIME STEP   3 IN FLOW TIME STEP   3 STRESS PERIOD   3
     9 TOTAL ITERATIONS
  MAXIMUM CONCENTRATION CHANGES FOR EACH ITERATION:
  MAX. CHANGE LAYER,ROW,COL MAX. CHANGE LAYER,ROW,COL MAX. CHANGE LAYER,ROW,COL MAX. CHANGE LAYER,ROW,COL MAX. CHANGE LAYER,ROW,COL
 ------------------------------------------------------------------------------------------------------------------------------------
   0.5356E-01 (  1,193, 55)  0.3621E-01 (  1,190, 53)  0.1714E-01 (  1,190, 51)  0.6336E-02 (  1,190, 57)  0.2713E-02 (  1,192, 53)
   0.8353E-03 (  1,191, 53)  0.4641E-03 (  1,188, 54)  0.2093E-03 (  1,189, 54)  0.8839E-04 (  1,191, 59)



 >>>>>>>>>>>>>>>>>>>>>>>>>>>>>>>>>>>>>>>>>>>>>>>>>>>>>>>FOR COMPONENT NO. 01<<<<<<<<<<<<<<<<<<<<<<<<<<<<<<<<<<<<<<<<<<<<<<<<<<<<<<<


                                            -------------------------------------------
                                                      TRANSPORT STEP NO.    3
                                            -------------------------------------------

 TOTAL ELAPSED TIME SINCE BEGINNING OF SIMULATION =   3700.000       d
 .....................................................................

                     CUMMULATIVE MASS BUDGETS AT END OF TRANSPORT STEP    3, TIME STEP    3, STRESS PERIOD    3
                     ------------------------------------------------------------------------------------------

                                                             IN                           OUT
                                                      ----------------             ----------------
                               CONSTANT CONCENTRATION:    0.000000                    0.000000    
                                        CONSTANT HEAD:    0.000000                  -0.1521076E-15
                                             RECHARGE:    1431040.                    0.000000    
                                   EVAPOTRANSPIRATION:    0.000000                   0.2248974    
                                MASS STORAGE (SOLUTE):    1956.222                   -1432460.    
                            ---------------------------------------------------------------------------
                                              [TOTAL]:    1432996.       mg          -1432459.       mg

                                                          NET (IN - OUT):    536.8750    
                                                   DISCREPANCY (PERCENT):   0.3747223E-01



 >>>>>>>>>>>>>>>>>>>>>>>>>>>>>>>>>>>>>>>>>>>>>>>>>>>>>>>FOR COMPONENT NO. 02<<<<<<<<<<<<<<<<<<<<<<<<<<<<<<<<<<<<<<<<<<<<<<<<<<<<<<<


                                            -------------------------------------------
                                                      TRANSPORT STEP NO.    3
                                            -------------------------------------------

 TOTAL ELAPSED TIME SINCE BEGINNING OF SIMULATION =   3700.000       d
 .....................................................................

                     CUMMULATIVE MASS BUDGETS AT END OF TRANSPORT STEP    3, TIME STEP    3, STRESS PERIOD    3
                     ------------------------------------------------------------------------------------------

                                                             IN                           OUT
                                                      ----------------             ----------------
                               CONSTANT CONCENTRATION:    0.000000                    0.000000    
                                        CONSTANT HEAD:    0.000000                  -0.1549274E-16
                                             RECHARGE:    93289.03                    0.000000    
                                   EVAPOTRANSPIRATION:    0.000000                   0.9062756E-02
                                MASS STORAGE (SOLUTE):    123.2213                   -93353.95    
                            ---------------------------------------------------------------------------
                                              [TOTAL]:    93412.25       mg          -93353.95       mg

                                                          NET (IN - OUT):    58.30469    
                                                   DISCREPANCY (PERCENT):   0.6243602E-01



 >>>>>>>>>>>>>>>>>>>>>>>>>>>>>>>>>>>>>>>>>>>>>>>>>>>>>>>FOR COMPONENT NO. 03<<<<<<<<<<<<<<<<<<<<<<<<<<<<<<<<<<<<<<<<<<<<<<<<<<<<<<<


                                            -------------------------------------------
                                                      TRANSPORT STEP NO.    3
                                            -------------------------------------------

 TOTAL ELAPSED TIME SINCE BEGINNING OF SIMULATION =   3700.000       d
 .....................................................................

                     CUMMULATIVE MASS BUDGETS AT END OF TRANSPORT STEP    3, TIME STEP    3, STRESS PERIOD    3
                     ------------------------------------------------------------------------------------------

                                                             IN                           OUT
                                                      ----------------             ----------------
                               CONSTANT CONCENTRATION:    0.000000                    0.000000    
                                        CONSTANT HEAD:    0.000000                  -0.4264908E-23
                                             RECHARGE:    4002.354                    0.000000    
                                   EVAPOTRANSPIRATION:    0.000000                   0.1341344E-02
                                MASS STORAGE (SOLUTE):    6.849474                   -4005.103    
                            ---------------------------------------------------------------------------
                                              [TOTAL]:    4009.203       mg          -4005.101       mg

                                                          NET (IN - OUT):    4.102051    
                                                   DISCREPANCY (PERCENT):   0.1023682    


                                          ================================================
                                                         TIME STEP NO.  004
                                          ================================================

 FROM TIME =   3700.0     TO    4600.0    



     1 CALLS TO GCG PACKAGE FOR TRANSPORT TIME STEP   1 IN FLOW TIME STEP   4 STRESS PERIOD   3
    17 TOTAL ITERATIONS


     1 CALLS TO GCG PACKAGE FOR TRANSPORT TIME STEP   1 IN FLOW TIME STEP   4 STRESS PERIOD   3
    16 TOTAL ITERATIONS


     1 CALLS TO GCG PACKAGE FOR TRANSPORT TIME STEP   1 IN FLOW TIME STEP   4 STRESS PERIOD   3
    16 TOTAL ITERATIONS



 >>>>>>>>>>>>>>>>>>>>>>>>>>>>>>>>>>>>>>>>>>>>>>>>>>>>>>>FOR COMPONENT NO. 01<<<<<<<<<<<<<<<<<<<<<<<<<<<<<<<<<<<<<<<<<<<<<<<<<<<<<<<


                                            -------------------------------------------
                                                      TRANSPORT STEP NO.    1
                                            -------------------------------------------

 TOTAL ELAPSED TIME SINCE BEGINNING OF SIMULATION =   4083.467       d
 .....................................................................

                     CUMMULATIVE MASS BUDGETS AT END OF TRANSPORT STEP    1, TIME STEP    4, STRESS PERIOD    3
                     ------------------------------------------------------------------------------------------

                                                             IN                           OUT
                                                      ----------------             ----------------
                               CONSTANT CONCENTRATION:    0.000000                    0.000000    
                                        CONSTANT HEAD:    0.000000                  -0.5766075E-15
                                             RECHARGE:    1579352.                    0.000000    
                                   EVAPOTRANSPIRATION:    0.000000                   0.2313642    
                                MASS STORAGE (SOLUTE):    1970.640                   -1580706.    
                            ---------------------------------------------------------------------------
                                              [TOTAL]:    1581323.       mg          -1580706.       mg

                                                          NET (IN - OUT):    617.0000    
                                                   DISCREPANCY (PERCENT):   0.3902558E-01



 >>>>>>>>>>>>>>>>>>>>>>>>>>>>>>>>>>>>>>>>>>>>>>>>>>>>>>>FOR COMPONENT NO. 02<<<<<<<<<<<<<<<<<<<<<<<<<<<<<<<<<<<<<<<<<<<<<<<<<<<<<<<


                                            -------------------------------------------
                                                      TRANSPORT STEP NO.    1
                                            -------------------------------------------

 TOTAL ELAPSED TIME SINCE BEGINNING OF SIMULATION =   4083.467       d
 .....................................................................

                     CUMMULATIVE MASS BUDGETS AT END OF TRANSPORT STEP    1, TIME STEP    4, STRESS PERIOD    3
                     ------------------------------------------------------------------------------------------

                                                             IN                           OUT
                                                      ----------------             ----------------
                               CONSTANT CONCENTRATION:    0.000000                    0.000000    
                                        CONSTANT HEAD:    0.000000                  -0.5697226E-16
                                             RECHARGE:    102957.5                    0.000000    
                                   EVAPOTRANSPIRATION:    0.000000                   0.9482238E-02
                                MASS STORAGE (SOLUTE):    124.5124                   -103011.5    
                            ---------------------------------------------------------------------------
                                              [TOTAL]:    103082.0       mg          -103011.5       mg

                                                          NET (IN - OUT):    70.46875    
                                                   DISCREPANCY (PERCENT):   0.6838522E-01



 >>>>>>>>>>>>>>>>>>>>>>>>>>>>>>>>>>>>>>>>>>>>>>>>>>>>>>>FOR COMPONENT NO. 03<<<<<<<<<<<<<<<<<<<<<<<<<<<<<<<<<<<<<<<<<<<<<<<<<<<<<<<


                                            -------------------------------------------
                                                      TRANSPORT STEP NO.    1
                                            -------------------------------------------

 TOTAL ELAPSED TIME SINCE BEGINNING OF SIMULATION =   4083.467       d
 .....................................................................

                     CUMMULATIVE MASS BUDGETS AT END OF TRANSPORT STEP    1, TIME STEP    4, STRESS PERIOD    3
                     ------------------------------------------------------------------------------------------

                                                             IN                           OUT
                                                      ----------------             ----------------
                               CONSTANT CONCENTRATION:    0.000000                    0.000000    
                                        CONSTANT HEAD:    0.000000                  -0.1988293E-22
                                             RECHARGE:    4417.156                    0.000000    
                                   EVAPOTRANSPIRATION:    0.000000                   0.1518635E-02
                                MASS STORAGE (SOLUTE):    6.853734                   -4419.036    
                            ---------------------------------------------------------------------------
                                              [TOTAL]:    4424.010       mg          -4419.035       mg

                                                          NET (IN - OUT):    4.975098    
                                                   DISCREPANCY (PERCENT):   0.1125200    
     1 CALLS TO GCG PACKAGE FOR TRANSPORT TIME STEP   2 IN FLOW TIME STEP   4 STRESS PERIOD   3
    17 TOTAL ITERATIONS
     1 CALLS TO GCG PACKAGE FOR TRANSPORT TIME STEP   2 IN FLOW TIME STEP   4 STRESS PERIOD   3
    15 TOTAL ITERATIONS
     1 CALLS TO GCG PACKAGE FOR TRANSPORT TIME STEP   2 IN FLOW TIME STEP   4 STRESS PERIOD   3
    16 TOTAL ITERATIONS



 >>>>>>>>>>>>>>>>>>>>>>>>>>>>>>>>>>>>>>>>>>>>>>>>>>>>>>>FOR COMPONENT NO. 01<<<<<<<<<<<<<<<<<<<<<<<<<<<<<<<<<<<<<<<<<<<<<<<<<<<<<<<


                                            -------------------------------------------
                                                      TRANSPORT STEP NO.    2
                                            -------------------------------------------

 TOTAL ELAPSED TIME SINCE BEGINNING OF SIMULATION =   4466.933       d
 .....................................................................

                     CUMMULATIVE MASS BUDGETS AT END OF TRANSPORT STEP    2, TIME STEP    4, STRESS PERIOD    3
                     ------------------------------------------------------------------------------------------

                                                             IN                           OUT
                                                      ----------------             ----------------
                               CONSTANT CONCENTRATION:    0.000000                    0.000000    
                                        CONSTANT HEAD:    0.000000                  -0.1969221E-14
                                             RECHARGE:    1727665.                    0.000000    
                                   EVAPOTRANSPIRATION:    0.000000                   0.2438746    
                                MASS STORAGE (SOLUTE):    1984.632                   -1728956.    
                            ---------------------------------------------------------------------------
                                              [TOTAL]:    1729649.       mg          -1728956.       mg

                                                          NET (IN - OUT):    693.5000    
                                                   DISCREPANCY (PERCENT):   0.4010287E-01



 >>>>>>>>>>>>>>>>>>>>>>>>>>>>>>>>>>>>>>>>>>>>>>>>>>>>>>>FOR COMPONENT NO. 02<<<<<<<<<<<<<<<<<<<<<<<<<<<<<<<<<<<<<<<<<<<<<<<<<<<<<<<


                                            -------------------------------------------
                                                      TRANSPORT STEP NO.    2
                                            -------------------------------------------

 TOTAL ELAPSED TIME SINCE BEGINNING OF SIMULATION =   4466.933       d
 .....................................................................

                     CUMMULATIVE MASS BUDGETS AT END OF TRANSPORT STEP    2, TIME STEP    4, STRESS PERIOD    3
                     ------------------------------------------------------------------------------------------

                                                             IN                           OUT
                                                      ----------------             ----------------
                               CONSTANT CONCENTRATION:    0.000000                    0.000000    
                                        CONSTANT HEAD:    0.000000                  -0.1893424E-15
                                             RECHARGE:    112625.9                    0.000000    
                                   EVAPOTRANSPIRATION:    0.000000                   0.1023935E-01
                                MASS STORAGE (SOLUTE):    125.7645                   -112662.0    
                            ---------------------------------------------------------------------------
                                              [TOTAL]:    112751.7       mg          -112662.0       mg

                                                          NET (IN - OUT):    89.71094    
                                                   DISCREPANCY (PERCENT):   0.7959673E-01



 >>>>>>>>>>>>>>>>>>>>>>>>>>>>>>>>>>>>>>>>>>>>>>>>>>>>>>>FOR COMPONENT NO. 03<<<<<<<<<<<<<<<<<<<<<<<<<<<<<<<<<<<<<<<<<<<<<<<<<<<<<<<


                                            -------------------------------------------
                                                      TRANSPORT STEP NO.    2
                                            -------------------------------------------

 TOTAL ELAPSED TIME SINCE BEGINNING OF SIMULATION =   4466.933       d
 .....................................................................

                     CUMMULATIVE MASS BUDGETS AT END OF TRANSPORT STEP    2, TIME STEP    4, STRESS PERIOD    3
                     ------------------------------------------------------------------------------------------

                                                             IN                           OUT
                                                      ----------------             ----------------
                               CONSTANT CONCENTRATION:    0.000000                    0.000000    
                                        CONSTANT HEAD:    0.000000                  -0.8329897E-22
                                             RECHARGE:    4831.958                    0.000000    
                                   EVAPOTRANSPIRATION:    0.000000                   0.1831416E-02
                                MASS STORAGE (SOLUTE):    6.859560                   -4833.039    
                            ---------------------------------------------------------------------------
                                              [TOTAL]:    4838.818       mg          -4833.037       mg

                                                          NET (IN - OUT):    5.781250    
                                                   DISCREPANCY (PERCENT):   0.1195479    
     1 CALLS TO GCG PACKAGE FOR TRANSPORT TIME STEP   3 IN FLOW TIME STEP   4 STRESS PERIOD   3
    10 TOTAL ITERATIONS
  MAXIMUM CONCENTRATION CHANGES FOR EACH ITERATION:
  MAX. CHANGE LAYER,ROW,COL MAX. CHANGE LAYER,ROW,COL MAX. CHANGE LAYER,ROW,COL MAX. CHANGE LAYER,ROW,COL MAX. CHANGE LAYER,ROW,COL
 ------------------------------------------------------------------------------------------------------------------------------------
   0.5263E-01 (  1,213,127)  0.3435E-01 (  1,210,124)  0.1425E-01 (  1,210,121)  0.6595E-02 (  1,210,127)  0.2720E-02 (  1,209,127)
   0.1076E-02 (  1,207,126)  0.5561E-03 (  1,208,126)  0.2341E-03 (  1,213,129)  0.1208E-03 (  1,206,122)  0.6443E-04 (  1,205,122)
     1 CALLS TO GCG PACKAGE FOR TRANSPORT TIME STEP   3 IN FLOW TIME STEP   4 STRESS PERIOD   3
     9 TOTAL ITERATIONS
  MAXIMUM CONCENTRATION CHANGES FOR EACH ITERATION:
  MAX. CHANGE LAYER,ROW,COL MAX. CHANGE LAYER,ROW,COL MAX. CHANGE LAYER,ROW,COL MAX. CHANGE LAYER,ROW,COL MAX. CHANGE LAYER,ROW,COL
 ------------------------------------------------------------------------------------------------------------------------------------
   0.8171E-01 (  1,131,254)  0.2520E-01 (  1,129,254)  0.1035E-01 (  1,131,254)  0.3938E-02 (  1,128,252)  0.2113E-02 (  1,131,254)
   0.7545E-03 (  1,126,255)  0.2853E-03 (  1,131,254)  0.1382E-03 (  1,131,256)  0.5376E-04 (  1,132,254)
     1 CALLS TO GCG PACKAGE FOR TRANSPORT TIME STEP   3 IN FLOW TIME STEP   4 STRESS PERIOD   3
     9 TOTAL ITERATIONS
  MAXIMUM CONCENTRATION CHANGES FOR EACH ITERATION:
  MAX. CHANGE LAYER,ROW,COL MAX. CHANGE LAYER,ROW,COL MAX. CHANGE LAYER,ROW,COL MAX. CHANGE LAYER,ROW,COL MAX. CHANGE LAYER,ROW,COL
 ------------------------------------------------------------------------------------------------------------------------------------
   0.5328E-01 (  1,193, 55)  0.3573E-01 (  1,190, 53)  0.1644E-01 (  1,190, 51)  0.6176E-02 (  1,190, 57)  0.2616E-02 (  1,192, 53)
   0.7917E-03 (  1,191, 53)  0.4262E-03 (  1,188, 54)  0.2003E-03 (  1,189, 54)  0.8726E-04 (  1,191, 59)



 >>>>>>>>>>>>>>>>>>>>>>>>>>>>>>>>>>>>>>>>>>>>>>>>>>>>>>>FOR COMPONENT NO. 01<<<<<<<<<<<<<<<<<<<<<<<<<<<<<<<<<<<<<<<<<<<<<<<<<<<<<<<


                                            -------------------------------------------
                                                      TRANSPORT STEP NO.    3
                                            -------------------------------------------

 TOTAL ELAPSED TIME SINCE BEGINNING OF SIMULATION =   4600.000       d
 .....................................................................

                     CUMMULATIVE MASS BUDGETS AT END OF TRANSPORT STEP    3, TIME STEP    4, STRESS PERIOD    3
                     ------------------------------------------------------------------------------------------

                                                             IN                           OUT
                                                      ----------------             ----------------
                               CONSTANT CONCENTRATION:    0.000000                    0.000000    
                                        CONSTANT HEAD:    0.000000                  -0.2600869E-14
                                             RECHARGE:    1779131.                    0.000000    
                                   EVAPOTRANSPIRATION:    0.000000                   0.2538138    
                                MASS STORAGE (SOLUTE):    3775.709                   -1782158.    
                            ---------------------------------------------------------------------------
                                              [TOTAL]:    1782906.       mg          -1782158.       mg

                                                          NET (IN - OUT):    748.3750    
                                                   DISCREPANCY (PERCENT):   0.4198381E-01



 >>>>>>>>>>>>>>>>>>>>>>>>>>>>>>>>>>>>>>>>>>>>>>>>>>>>>>>FOR COMPONENT NO. 02<<<<<<<<<<<<<<<<<<<<<<<<<<<<<<<<<<<<<<<<<<<<<<<<<<<<<<<


                                            -------------------------------------------
                                                      TRANSPORT STEP NO.    3
                                            -------------------------------------------

 TOTAL ELAPSED TIME SINCE BEGINNING OF SIMULATION =   4600.000       d
 .....................................................................

                     CUMMULATIVE MASS BUDGETS AT END OF TRANSPORT STEP    3, TIME STEP    4, STRESS PERIOD    3
                     ------------------------------------------------------------------------------------------

                                                             IN                           OUT
                                                      ----------------             ----------------
                               CONSTANT CONCENTRATION:    0.000000                    0.000000    
                                        CONSTANT HEAD:    0.000000                  -0.2489618E-15
                                             RECHARGE:    115981.0                    0.000000    
                                   EVAPOTRANSPIRATION:    0.000000                   0.1073295E-01
                                MASS STORAGE (SOLUTE):    240.0184                   -116126.5    
                            ---------------------------------------------------------------------------
                                              [TOTAL]:    116221.0       mg          -116126.5       mg

                                                          NET (IN - OUT):    94.51562    
                                                   DISCREPANCY (PERCENT):   0.8135715E-01



 >>>>>>>>>>>>>>>>>>>>>>>>>>>>>>>>>>>>>>>>>>>>>>>>>>>>>>>FOR COMPONENT NO. 03<<<<<<<<<<<<<<<<<<<<<<<<<<<<<<<<<<<<<<<<<<<<<<<<<<<<<<<


                                            -------------------------------------------
                                                      TRANSPORT STEP NO.    3
                                            -------------------------------------------

 TOTAL ELAPSED TIME SINCE BEGINNING OF SIMULATION =   4600.000       d
 .....................................................................

                     CUMMULATIVE MASS BUDGETS AT END OF TRANSPORT STEP    3, TIME STEP    4, STRESS PERIOD    3
                     ------------------------------------------------------------------------------------------

                                                             IN                           OUT
                                                      ----------------             ----------------
                               CONSTANT CONCENTRATION:    0.000000                    0.000000    
                                        CONSTANT HEAD:    0.000000                  -0.1129452E-21
                                             RECHARGE:    4975.899                    0.000000    
                                   EVAPOTRANSPIRATION:    0.000000                   0.2029914E-02
                                MASS STORAGE (SOLUTE):    12.64061                   -4982.277    
                            ---------------------------------------------------------------------------
                                              [TOTAL]:    4988.540       mg          -4982.275       mg

                                                          NET (IN - OUT):    6.265137    
                                                   DISCREPANCY (PERCENT):   0.1256695    


                                          ================================================
                                                         TIME STEP NO.  005
                                          ================================================

 FROM TIME =   4600.0     TO    5500.0    



     1 CALLS TO GCG PACKAGE FOR TRANSPORT TIME STEP   1 IN FLOW TIME STEP   5 STRESS PERIOD   3
    17 TOTAL ITERATIONS


     1 CALLS TO GCG PACKAGE FOR TRANSPORT TIME STEP   1 IN FLOW TIME STEP   5 STRESS PERIOD   3
    15 TOTAL ITERATIONS


     1 CALLS TO GCG PACKAGE FOR TRANSPORT TIME STEP   1 IN FLOW TIME STEP   5 STRESS PERIOD   3
    16 TOTAL ITERATIONS



 >>>>>>>>>>>>>>>>>>>>>>>>>>>>>>>>>>>>>>>>>>>>>>>>>>>>>>>FOR COMPONENT NO. 01<<<<<<<<<<<<<<<<<<<<<<<<<<<<<<<<<<<<<<<<<<<<<<<<<<<<<<<


                                            -------------------------------------------
                                                      TRANSPORT STEP NO.    1
                                            -------------------------------------------

 TOTAL ELAPSED TIME SINCE BEGINNING OF SIMULATION =   4983.466       d
 .....................................................................

                     CUMMULATIVE MASS BUDGETS AT END OF TRANSPORT STEP    1, TIME STEP    5, STRESS PERIOD    3
                     ------------------------------------------------------------------------------------------

                                                             IN                           OUT
                                                      ----------------             ----------------
                               CONSTANT CONCENTRATION:    0.000000                    0.000000    
                                        CONSTANT HEAD:    0.000000                  -0.7766201E-14
                                             RECHARGE:    1927443.                    0.000000    
                                   EVAPOTRANSPIRATION:    0.000000                   0.2896900    
                                MASS STORAGE (SOLUTE):    3789.016                   -1930394.    
                            ---------------------------------------------------------------------------
                                              [TOTAL]:    1931232.       mg          -1930394.       mg

                                                          NET (IN - OUT):    838.3750    
                                                   DISCREPANCY (PERCENT):   0.4342083E-01



 >>>>>>>>>>>>>>>>>>>>>>>>>>>>>>>>>>>>>>>>>>>>>>>>>>>>>>>FOR COMPONENT NO. 02<<<<<<<<<<<<<<<<<<<<<<<<<<<<<<<<<<<<<<<<<<<<<<<<<<<<<<<


                                            -------------------------------------------
                                                      TRANSPORT STEP NO.    1
                                            -------------------------------------------

 TOTAL ELAPSED TIME SINCE BEGINNING OF SIMULATION =   4983.466       d
 .....................................................................

                     CUMMULATIVE MASS BUDGETS AT END OF TRANSPORT STEP    1, TIME STEP    5, STRESS PERIOD    3
                     ------------------------------------------------------------------------------------------

                                                             IN                           OUT
                                                      ----------------             ----------------
                               CONSTANT CONCENTRATION:    0.000000                    0.000000    
                                        CONSTANT HEAD:    0.000000                  -0.7314666E-15
                                             RECHARGE:    125649.4                    0.000000    
                                   EVAPOTRANSPIRATION:    0.000000                   0.1264620E-01
                                MASS STORAGE (SOLUTE):    241.2043                   -125775.9    
                            ---------------------------------------------------------------------------
                                              [TOTAL]:    125890.6       mg          -125775.9       mg

                                                          NET (IN - OUT):    114.7031    
                                                   DISCREPANCY (PERCENT):   0.9115487E-01



 >>>>>>>>>>>>>>>>>>>>>>>>>>>>>>>>>>>>>>>>>>>>>>>>>>>>>>>FOR COMPONENT NO. 03<<<<<<<<<<<<<<<<<<<<<<<<<<<<<<<<<<<<<<<<<<<<<<<<<<<<<<<


                                            -------------------------------------------
                                                      TRANSPORT STEP NO.    1
                                            -------------------------------------------

 TOTAL ELAPSED TIME SINCE BEGINNING OF SIMULATION =   4983.466       d
 .....................................................................

                     CUMMULATIVE MASS BUDGETS AT END OF TRANSPORT STEP    1, TIME STEP    5, STRESS PERIOD    3
                     ------------------------------------------------------------------------------------------

                                                             IN                           OUT
                                                      ----------------             ----------------
                               CONSTANT CONCENTRATION:    0.000000                    0.000000    
                                        CONSTANT HEAD:    0.000000                  -0.4564842E-21
                                             RECHARGE:    5390.702                    0.000000    
                                   EVAPOTRANSPIRATION:    0.000000                   0.2791950E-02
                                MASS STORAGE (SOLUTE):    12.64902                   -5396.089    
                            ---------------------------------------------------------------------------
                                              [TOTAL]:    5403.351       mg          -5396.086       mg

                                                          NET (IN - OUT):    7.264160    
                                                   DISCREPANCY (PERCENT):   0.1345285    
     1 CALLS TO GCG PACKAGE FOR TRANSPORT TIME STEP   2 IN FLOW TIME STEP   5 STRESS PERIOD   3
    17 TOTAL ITERATIONS
     1 CALLS TO GCG PACKAGE FOR TRANSPORT TIME STEP   2 IN FLOW TIME STEP   5 STRESS PERIOD   3
    15 TOTAL ITERATIONS
     1 CALLS TO GCG PACKAGE FOR TRANSPORT TIME STEP   2 IN FLOW TIME STEP   5 STRESS PERIOD   3
    16 TOTAL ITERATIONS



 >>>>>>>>>>>>>>>>>>>>>>>>>>>>>>>>>>>>>>>>>>>>>>>>>>>>>>>FOR COMPONENT NO. 01<<<<<<<<<<<<<<<<<<<<<<<<<<<<<<<<<<<<<<<<<<<<<<<<<<<<<<<


                                            -------------------------------------------
                                                      TRANSPORT STEP NO.    2
                                            -------------------------------------------

 TOTAL ELAPSED TIME SINCE BEGINNING OF SIMULATION =   5366.933       d
 .....................................................................

                     CUMMULATIVE MASS BUDGETS AT END OF TRANSPORT STEP    2, TIME STEP    5, STRESS PERIOD    3
                     ------------------------------------------------------------------------------------------

                                                             IN                           OUT
                                                      ----------------             ----------------
                               CONSTANT CONCENTRATION:    0.000000                    0.000000    
                                        CONSTANT HEAD:    0.000000                  -0.2179668E-13
                                             RECHARGE:    2075755.                    0.000000    
                                   EVAPOTRANSPIRATION:    0.000000                   0.3334138    
                                MASS STORAGE (SOLUTE):    3801.787                   -2078633.    
                            ---------------------------------------------------------------------------
                                              [TOTAL]:    2079557.       mg          -2078633.       mg

                                                          NET (IN - OUT):    924.2500    
                                                   DISCREPANCY (PERCENT):   0.4445444E-01



 >>>>>>>>>>>>>>>>>>>>>>>>>>>>>>>>>>>>>>>>>>>>>>>>>>>>>>>FOR COMPONENT NO. 02<<<<<<<<<<<<<<<<<<<<<<<<<<<<<<<<<<<<<<<<<<<<<<<<<<<<<<<


                                            -------------------------------------------
                                                      TRANSPORT STEP NO.    2
                                            -------------------------------------------

 TOTAL ELAPSED TIME SINCE BEGINNING OF SIMULATION =   5366.933       d
 .....................................................................

                     CUMMULATIVE MASS BUDGETS AT END OF TRANSPORT STEP    2, TIME STEP    5, STRESS PERIOD    3
                     ------------------------------------------------------------------------------------------

                                                             IN                           OUT
                                                      ----------------             ----------------
                               CONSTANT CONCENTRATION:    0.000000                    0.000000    
                                        CONSTANT HEAD:    0.000000                  -0.2030445E-14
                                             RECHARGE:    135317.8                    0.000000    
                                   EVAPOTRANSPIRATION:    0.000000                   0.1509682E-01
                                MASS STORAGE (SOLUTE):    242.3428                   -135425.5    
                            ---------------------------------------------------------------------------
                                              [TOTAL]:    135560.2       mg          -135425.5       mg

                                                          NET (IN - OUT):    134.6875    
                                                   DISCREPANCY (PERCENT):   0.9940563E-01



 >>>>>>>>>>>>>>>>>>>>>>>>>>>>>>>>>>>>>>>>>>>>>>>>>>>>>>>FOR COMPONENT NO. 03<<<<<<<<<<<<<<<<<<<<<<<<<<<<<<<<<<<<<<<<<<<<<<<<<<<<<<<


                                            -------------------------------------------
                                                      TRANSPORT STEP NO.    2
                                            -------------------------------------------

 TOTAL ELAPSED TIME SINCE BEGINNING OF SIMULATION =   5366.933       d
 .....................................................................

                     CUMMULATIVE MASS BUDGETS AT END OF TRANSPORT STEP    2, TIME STEP    5, STRESS PERIOD    3
                     ------------------------------------------------------------------------------------------

                                                             IN                           OUT
                                                      ----------------             ----------------
                               CONSTANT CONCENTRATION:    0.000000                    0.000000    
                                        CONSTANT HEAD:    0.000000                  -0.1774632E-20
                                             RECHARGE:    5805.504                    0.000000    
                                   EVAPOTRANSPIRATION:    0.000000                   0.3758801E-02
                                MASS STORAGE (SOLUTE):    12.65866                   -5809.987    
                            ---------------------------------------------------------------------------
                                              [TOTAL]:    5818.163       mg          -5809.983       mg

                                                          NET (IN - OUT):    8.179199    
                                                   DISCREPANCY (PERCENT):   0.1406793    
     1 CALLS TO GCG PACKAGE FOR TRANSPORT TIME STEP   3 IN FLOW TIME STEP   5 STRESS PERIOD   3
    10 TOTAL ITERATIONS
  MAXIMUM CONCENTRATION CHANGES FOR EACH ITERATION:
  MAX. CHANGE LAYER,ROW,COL MAX. CHANGE LAYER,ROW,COL MAX. CHANGE LAYER,ROW,COL MAX. CHANGE LAYER,ROW,COL MAX. CHANGE LAYER,ROW,COL
 ------------------------------------------------------------------------------------------------------------------------------------
   0.5285E-01 (  1,213,127)  0.3436E-01 (  1,210,124)  0.1385E-01 (  1,210,121)  0.6605E-02 (  1,210,127)  0.2723E-02 (  1,209,127)
   0.1058E-02 (  1,207,126)  0.5276E-03 (  1,208,126)  0.2163E-03 (  1,209,126)  0.1090E-03 (  1,211,131)  0.5972E-04 (  1,205,122)
     1 CALLS TO GCG PACKAGE FOR TRANSPORT TIME STEP   3 IN FLOW TIME STEP   5 STRESS PERIOD   3
     9 TOTAL ITERATIONS
  MAXIMUM CONCENTRATION CHANGES FOR EACH ITERATION:
  MAX. CHANGE LAYER,ROW,COL MAX. CHANGE LAYER,ROW,COL MAX. CHANGE LAYER,ROW,COL MAX. CHANGE LAYER,ROW,COL MAX. CHANGE LAYER,ROW,COL
 ------------------------------------------------------------------------------------------------------------------------------------
   0.7931E-01 (  1,131,254)  0.2506E-01 (  1,129,254)  0.9951E-02 (  1,130,258)  0.3861E-02 (  1,128,252)  0.2045E-02 (  1,131,254)
   0.7434E-03 (  1,126,255)  0.2714E-03 (  1,131,254)  0.1307E-03 (  1,131,256)  0.4900E-04 (  1,132,254)
     1 CALLS TO GCG PACKAGE FOR TRANSPORT TIME STEP   3 IN FLOW TIME STEP   5 STRESS PERIOD   3
     9 TOTAL ITERATIONS
  MAXIMUM CONCENTRATION CHANGES FOR EACH ITERATION:
  MAX. CHANGE LAYER,ROW,COL MAX. CHANGE LAYER,ROW,COL MAX. CHANGE LAYER,ROW,COL MAX. CHANGE LAYER,ROW,COL MAX. CHANGE LAYER,ROW,COL
 ------------------------------------------------------------------------------------------------------------------------------------
   0.5322E-01 (  1,193, 55)  0.3554E-01 (  1,190, 53)  0.1597E-01 (  1,190, 51)  0.6057E-02 (  1,190, 57)  0.2541E-02 (  1,192, 53)
   0.7632E-03 (  1,191, 53)  0.3997E-03 (  1,188, 54)  0.1913E-03 (  1,189, 54)  0.8446E-04 (  1,191, 59)



 >>>>>>>>>>>>>>>>>>>>>>>>>>>>>>>>>>>>>>>>>>>>>>>>>>>>>>>FOR COMPONENT NO. 01<<<<<<<<<<<<<<<<<<<<<<<<<<<<<<<<<<<<<<<<<<<<<<<<<<<<<<<


                                            -------------------------------------------
                                                      TRANSPORT STEP NO.    3
                                            -------------------------------------------

 TOTAL ELAPSED TIME SINCE BEGINNING OF SIMULATION =   5500.000       d
 .....................................................................

                     CUMMULATIVE MASS BUDGETS AT END OF TRANSPORT STEP    3, TIME STEP    5, STRESS PERIOD    3
                     ------------------------------------------------------------------------------------------

                                                             IN                           OUT
                                                      ----------------             ----------------
                               CONSTANT CONCENTRATION:    0.000000                    0.000000    
                                        CONSTANT HEAD:    0.000000                  -0.2799329E-13
                                             RECHARGE:    2127222.                    0.000000    
                                   EVAPOTRANSPIRATION:    0.000000                   0.3555613    
                                MASS STORAGE (SOLUTE):    6037.935                   -2132275.    
                            ---------------------------------------------------------------------------
                                              [TOTAL]:    2133260.       mg          -2132274.       mg

                                                          NET (IN - OUT):    985.0000    
                                                   DISCREPANCY (PERCENT):   0.4618413E-01



 >>>>>>>>>>>>>>>>>>>>>>>>>>>>>>>>>>>>>>>>>>>>>>>>>>>>>>>FOR COMPONENT NO. 02<<<<<<<<<<<<<<<<<<<<<<<<<<<<<<<<<<<<<<<<<<<<<<<<<<<<<<<


                                            -------------------------------------------
                                                      TRANSPORT STEP NO.    3
                                            -------------------------------------------

 TOTAL ELAPSED TIME SINCE BEGINNING OF SIMULATION =   5500.000       d
 .....................................................................

                     CUMMULATIVE MASS BUDGETS AT END OF TRANSPORT STEP    3, TIME STEP    5, STRESS PERIOD    3
                     ------------------------------------------------------------------------------------------

                                                             IN                           OUT
                                                      ----------------             ----------------
                               CONSTANT CONCENTRATION:    0.000000                    0.000000    
                                        CONSTANT HEAD:    0.000000                  -0.2602655E-14
                                             RECHARGE:    138672.9                    0.000000    
                                   EVAPOTRANSPIRATION:    0.000000                   0.1626898E-01
                                MASS STORAGE (SOLUTE):    385.7496                   -138919.0    
                            ---------------------------------------------------------------------------
                                              [TOTAL]:    139058.6       mg          -138919.0       mg

                                                          NET (IN - OUT):    139.6719    
                                                   DISCREPANCY (PERCENT):   0.1004914    



 >>>>>>>>>>>>>>>>>>>>>>>>>>>>>>>>>>>>>>>>>>>>>>>>>>>>>>>FOR COMPONENT NO. 03<<<<<<<<<<<<<<<<<<<<<<<<<<<<<<<<<<<<<<<<<<<<<<<<<<<<<<<


                                            -------------------------------------------
                                                      TRANSPORT STEP NO.    3
                                            -------------------------------------------

 TOTAL ELAPSED TIME SINCE BEGINNING OF SIMULATION =   5500.000       d
 .....................................................................

                     CUMMULATIVE MASS BUDGETS AT END OF TRANSPORT STEP    3, TIME STEP    5, STRESS PERIOD    3
                     ------------------------------------------------------------------------------------------

                                                             IN                           OUT
                                                      ----------------             ----------------
                               CONSTANT CONCENTRATION:    0.000000                    0.000000    
                                        CONSTANT HEAD:    0.000000                  -0.2382152E-20
                                             RECHARGE:    5949.445                    0.000000    
                                   EVAPOTRANSPIRATION:    0.000000                   0.4224247E-02
                                MASS STORAGE (SOLUTE):    19.79699                   -5960.542    
                            ---------------------------------------------------------------------------
                                              [TOTAL]:    5969.242       mg          -5960.538       mg

                                                          NET (IN - OUT):    8.704590    
                                                   DISCREPANCY (PERCENT):   0.1459304    


                                          ================================================
                                                         TIME STEP NO.  006
                                          ================================================

 FROM TIME =   5500.0     TO    6400.0    



     1 CALLS TO GCG PACKAGE FOR TRANSPORT TIME STEP   1 IN FLOW TIME STEP   6 STRESS PERIOD   3
    17 TOTAL ITERATIONS


     1 CALLS TO GCG PACKAGE FOR TRANSPORT TIME STEP   1 IN FLOW TIME STEP   6 STRESS PERIOD   3
    15 TOTAL ITERATIONS


     1 CALLS TO GCG PACKAGE FOR TRANSPORT TIME STEP   1 IN FLOW TIME STEP   6 STRESS PERIOD   3
    16 TOTAL ITERATIONS



 >>>>>>>>>>>>>>>>>>>>>>>>>>>>>>>>>>>>>>>>>>>>>>>>>>>>>>>FOR COMPONENT NO. 01<<<<<<<<<<<<<<<<<<<<<<<<<<<<<<<<<<<<<<<<<<<<<<<<<<<<<<<


                                            -------------------------------------------
                                                      TRANSPORT STEP NO.    1
                                            -------------------------------------------

 TOTAL ELAPSED TIME SINCE BEGINNING OF SIMULATION =   5883.466       d
 .....................................................................

                     CUMMULATIVE MASS BUDGETS AT END OF TRANSPORT STEP    1, TIME STEP    6, STRESS PERIOD    3
                     ------------------------------------------------------------------------------------------

                                                             IN                           OUT
                                                      ----------------             ----------------
                               CONSTANT CONCENTRATION:    0.000000                    0.000000    
                                        CONSTANT HEAD:    0.000000                  -0.7201499E-13
                                             RECHARGE:    2275534.                    0.000000    
                                   EVAPOTRANSPIRATION:    0.000000                   0.4267462    
                                MASS STORAGE (SOLUTE):    6049.855                   -2280495.    
                            ---------------------------------------------------------------------------
                                              [TOTAL]:    2281584.       mg          -2280495.       mg

                                                          NET (IN - OUT):    1089.000    
                                                   DISCREPANCY (PERCENT):   0.4774140E-01



 >>>>>>>>>>>>>>>>>>>>>>>>>>>>>>>>>>>>>>>>>>>>>>>>>>>>>>>FOR COMPONENT NO. 02<<<<<<<<<<<<<<<<<<<<<<<<<<<<<<<<<<<<<<<<<<<<<<<<<<<<<<<


                                            -------------------------------------------
                                                      TRANSPORT STEP NO.    1
                                            -------------------------------------------

 TOTAL ELAPSED TIME SINCE BEGINNING OF SIMULATION =   5883.466       d
 .....................................................................

                     CUMMULATIVE MASS BUDGETS AT END OF TRANSPORT STEP    1, TIME STEP    6, STRESS PERIOD    3
                     ------------------------------------------------------------------------------------------

                                                             IN                           OUT
                                                      ----------------             ----------------
                               CONSTANT CONCENTRATION:    0.000000                    0.000000    
                                        CONSTANT HEAD:    0.000000                  -0.6640278E-14
                                             RECHARGE:    148341.3                    0.000000    
                                   EVAPOTRANSPIRATION:    0.000000                   0.2018303E-01
                                MASS STORAGE (SOLUTE):    386.8110                   -148567.8    
                            ---------------------------------------------------------------------------
                                              [TOTAL]:    148728.1       mg          -148567.7       mg

                                                          NET (IN - OUT):    160.4062    
                                                   DISCREPANCY (PERCENT):   0.1079102    



 >>>>>>>>>>>>>>>>>>>>>>>>>>>>>>>>>>>>>>>>>>>>>>>>>>>>>>>FOR COMPONENT NO. 03<<<<<<<<<<<<<<<<<<<<<<<<<<<<<<<<<<<<<<<<<<<<<<<<<<<<<<<


                                            -------------------------------------------
                                                      TRANSPORT STEP NO.    1
                                            -------------------------------------------

 TOTAL ELAPSED TIME SINCE BEGINNING OF SIMULATION =   5883.466       d
 .....................................................................

                     CUMMULATIVE MASS BUDGETS AT END OF TRANSPORT STEP    1, TIME STEP    6, STRESS PERIOD    3
                     ------------------------------------------------------------------------------------------

                                                             IN                           OUT
                                                      ----------------             ----------------
                               CONSTANT CONCENTRATION:    0.000000                    0.000000    
                                        CONSTANT HEAD:    0.000000                  -0.8997941E-20
                                             RECHARGE:    6364.248                    0.000000    
                                   EVAPOTRANSPIRATION:    0.000000                   0.5762193E-02
                                MASS STORAGE (SOLUTE):    19.80799                   -6374.208    
                            ---------------------------------------------------------------------------
                                              [TOTAL]:    6384.056       mg          -6374.202       mg

                                                          NET (IN - OUT):    9.854004    
                                                   DISCREPANCY (PERCENT):   0.1544726    
     1 CALLS TO GCG PACKAGE FOR TRANSPORT TIME STEP   2 IN FLOW TIME STEP   6 STRESS PERIOD   3
    17 TOTAL ITERATIONS
     1 CALLS TO GCG PACKAGE FOR TRANSPORT TIME STEP   2 IN FLOW TIME STEP   6 STRESS PERIOD   3
    15 TOTAL ITERATIONS
     1 CALLS TO GCG PACKAGE FOR TRANSPORT TIME STEP   2 IN FLOW TIME STEP   6 STRESS PERIOD   3
    16 TOTAL ITERATIONS



 >>>>>>>>>>>>>>>>>>>>>>>>>>>>>>>>>>>>>>>>>>>>>>>>>>>>>>>FOR COMPONENT NO. 01<<<<<<<<<<<<<<<<<<<<<<<<<<<<<<<<<<<<<<<<<<<<<<<<<<<<<<<


                                            -------------------------------------------
                                                      TRANSPORT STEP NO.    2
                                            -------------------------------------------

 TOTAL ELAPSED TIME SINCE BEGINNING OF SIMULATION =   6266.933       d
 .....................................................................

                     CUMMULATIVE MASS BUDGETS AT END OF TRANSPORT STEP    2, TIME STEP    6, STRESS PERIOD    3
                     ------------------------------------------------------------------------------------------

                                                             IN                           OUT
                                                      ----------------             ----------------
                               CONSTANT CONCENTRATION:    0.000000                    0.000000    
                                        CONSTANT HEAD:    0.000000                  -0.1776647E-12
                                             RECHARGE:    2423846.                    0.000000    
                                   EVAPOTRANSPIRATION:    0.000000                   0.5035385    
                                MASS STORAGE (SOLUTE):    6061.117                   -2428718.    
                            ---------------------------------------------------------------------------
                                              [TOTAL]:    2429908.       mg          -2428718.       mg

                                                          NET (IN - OUT):    1189.500    
                                                   DISCREPANCY (PERCENT):   0.4896447E-01



 >>>>>>>>>>>>>>>>>>>>>>>>>>>>>>>>>>>>>>>>>>>>>>>>>>>>>>>FOR COMPONENT NO. 02<<<<<<<<<<<<<<<<<<<<<<<<<<<<<<<<<<<<<<<<<<<<<<<<<<<<<<<


                                            -------------------------------------------
                                                      TRANSPORT STEP NO.    2
                                            -------------------------------------------

 TOTAL ELAPSED TIME SINCE BEGINNING OF SIMULATION =   6266.933       d
 .....................................................................

                     CUMMULATIVE MASS BUDGETS AT END OF TRANSPORT STEP    2, TIME STEP    6, STRESS PERIOD    3
                     ------------------------------------------------------------------------------------------

                                                             IN                           OUT
                                                      ----------------             ----------------
                               CONSTANT CONCENTRATION:    0.000000                    0.000000    
                                        CONSTANT HEAD:    0.000000                  -0.1626328E-13
                                             RECHARGE:    158009.8                    0.000000    
                                   EVAPOTRANSPIRATION:    0.000000                   0.2475063E-01
                                MASS STORAGE (SOLUTE):    387.8154                   -158216.7    
                            ---------------------------------------------------------------------------
                                              [TOTAL]:    158397.6       mg          -158216.7       mg

                                                          NET (IN - OUT):    180.8906    
                                                   DISCREPANCY (PERCENT):   0.1142656    



 >>>>>>>>>>>>>>>>>>>>>>>>>>>>>>>>>>>>>>>>>>>>>>>>>>>>>>>FOR COMPONENT NO. 03<<<<<<<<<<<<<<<<<<<<<<<<<<<<<<<<<<<<<<<<<<<<<<<<<<<<<<<


                                            -------------------------------------------
                                                      TRANSPORT STEP NO.    2
                                            -------------------------------------------

 TOTAL ELAPSED TIME SINCE BEGINNING OF SIMULATION =   6266.933       d
 .....................................................................

                     CUMMULATIVE MASS BUDGETS AT END OF TRANSPORT STEP    2, TIME STEP    6, STRESS PERIOD    3
                     ------------------------------------------------------------------------------------------

                                                             IN                           OUT
                                                      ----------------             ----------------
                               CONSTANT CONCENTRATION:    0.000000                    0.000000    
                                        CONSTANT HEAD:    0.000000                  -0.3101049E-19
                                             RECHARGE:    6779.050                    0.000000    
                                   EVAPOTRANSPIRATION:    0.000000                   0.7573400E-02
                                MASS STORAGE (SOLUTE):    19.81960                   -6787.992    
                            ---------------------------------------------------------------------------
                                              [TOTAL]:    6798.870       mg          -6787.984       mg

                                                          NET (IN - OUT):    10.88525    
                                                   DISCREPANCY (PERCENT):   0.1602322    
     1 CALLS TO GCG PACKAGE FOR TRANSPORT TIME STEP   3 IN FLOW TIME STEP   6 STRESS PERIOD   3
    10 TOTAL ITERATIONS
  MAXIMUM CONCENTRATION CHANGES FOR EACH ITERATION:
  MAX. CHANGE LAYER,ROW,COL MAX. CHANGE LAYER,ROW,COL MAX. CHANGE LAYER,ROW,COL MAX. CHANGE LAYER,ROW,COL MAX. CHANGE LAYER,ROW,COL
 ------------------------------------------------------------------------------------------------------------------------------------
   0.5269E-01 (  1,213,127)  0.3439E-01 (  1,210,124)  0.1351E-01 (  1,210,121)  0.6572E-02 (  1,210,127)  0.2716E-02 (  1,209,127)
   0.1036E-02 (  1,207,126)  0.5005E-03 (  1,208,126)  0.2042E-03 (  1,209,126)  0.1031E-03 (  1,211,131)  0.5573E-04 (  2,210,126)
     1 CALLS TO GCG PACKAGE FOR TRANSPORT TIME STEP   3 IN FLOW TIME STEP   6 STRESS PERIOD   3
     9 TOTAL ITERATIONS
  MAXIMUM CONCENTRATION CHANGES FOR EACH ITERATION:
  MAX. CHANGE LAYER,ROW,COL MAX. CHANGE LAYER,ROW,COL MAX. CHANGE LAYER,ROW,COL MAX. CHANGE LAYER,ROW,COL MAX. CHANGE LAYER,ROW,COL
 ------------------------------------------------------------------------------------------------------------------------------------
   0.7760E-01 (  1,131,254)  0.2503E-01 (  1,129,254)  0.9748E-02 (  1,130,258)  0.3808E-02 (  1,128,252)  0.1992E-02 (  1,131,254)
   0.7366E-03 (  1,126,255)  0.2683E-03 (  1,125,255)  0.1251E-03 (  1,131,256)  0.4542E-04 (  1,132,254)
     1 CALLS TO GCG PACKAGE FOR TRANSPORT TIME STEP   3 IN FLOW TIME STEP   6 STRESS PERIOD   3
     9 TOTAL ITERATIONS
  MAXIMUM CONCENTRATION CHANGES FOR EACH ITERATION:
  MAX. CHANGE LAYER,ROW,COL MAX. CHANGE LAYER,ROW,COL MAX. CHANGE LAYER,ROW,COL MAX. CHANGE LAYER,ROW,COL MAX. CHANGE LAYER,ROW,COL
 ------------------------------------------------------------------------------------------------------------------------------------
   0.5331E-01 (  1,193, 55)  0.3546E-01 (  1,190, 53)  0.1565E-01 (  1,190, 51)  0.5976E-02 (  1,190, 57)  0.2482E-02 (  1,192, 53)
   0.7459E-03 (  1,191, 53)  0.3815E-03 (  1,188, 54)  0.1838E-03 (  1,189, 54)  0.8094E-04 (  1,191, 59)



 >>>>>>>>>>>>>>>>>>>>>>>>>>>>>>>>>>>>>>>>>>>>>>>>>>>>>>>FOR COMPONENT NO. 01<<<<<<<<<<<<<<<<<<<<<<<<<<<<<<<<<<<<<<<<<<<<<<<<<<<<<<<


                                            -------------------------------------------
                                                      TRANSPORT STEP NO.    3
                                            -------------------------------------------

 TOTAL ELAPSED TIME SINCE BEGINNING OF SIMULATION =   6400.000       d
 .....................................................................

                     CUMMULATIVE MASS BUDGETS AT END OF TRANSPORT STEP    3, TIME STEP    6, STRESS PERIOD    3
                     ------------------------------------------------------------------------------------------

                                                             IN                           OUT
                                                      ----------------             ----------------
                               CONSTANT CONCENTRATION:    0.000000                    0.000000    
                                        CONSTANT HEAD:    0.000000                  -0.2234365E-12
                                             RECHARGE:    2475313.                    0.000000    
                                   EVAPOTRANSPIRATION:    0.000000                   0.5375906    
                                MASS STORAGE (SOLUTE):    8670.767                   -2482727.    
                            ---------------------------------------------------------------------------
                                              [TOTAL]:    2483984.       mg          -2482727.       mg

                                                          NET (IN - OUT):    1256.750    
                                                   DISCREPANCY (PERCENT):   0.5060694E-01



 >>>>>>>>>>>>>>>>>>>>>>>>>>>>>>>>>>>>>>>>>>>>>>>>>>>>>>>FOR COMPONENT NO. 02<<<<<<<<<<<<<<<<<<<<<<<<<<<<<<<<<<<<<<<<<<<<<<<<<<<<<<<


                                            -------------------------------------------
                                                      TRANSPORT STEP NO.    3
                                            -------------------------------------------

 TOTAL ELAPSED TIME SINCE BEGINNING OF SIMULATION =   6400.000       d
 .....................................................................

                     CUMMULATIVE MASS BUDGETS AT END OF TRANSPORT STEP    3, TIME STEP    6, STRESS PERIOD    3
                     ------------------------------------------------------------------------------------------

                                                             IN                           OUT
                                                      ----------------             ----------------
                               CONSTANT CONCENTRATION:    0.000000                    0.000000    
                                        CONSTANT HEAD:    0.000000                  -0.2042567E-13
                                             RECHARGE:    161364.8                    0.000000    
                                   EVAPOTRANSPIRATION:    0.000000                   0.2667750E-01
                                MASS STORAGE (SOLUTE):    555.7472                   -161734.6    
                            ---------------------------------------------------------------------------
                                              [TOTAL]:    161920.6       mg          -161734.6       mg

                                                          NET (IN - OUT):    186.0000    
                                                   DISCREPANCY (PERCENT):   0.1149371    



 >>>>>>>>>>>>>>>>>>>>>>>>>>>>>>>>>>>>>>>>>>>>>>>>>>>>>>>FOR COMPONENT NO. 03<<<<<<<<<<<<<<<<<<<<<<<<<<<<<<<<<<<<<<<<<<<<<<<<<<<<<<<


                                            -------------------------------------------
                                                      TRANSPORT STEP NO.    3
                                            -------------------------------------------

 TOTAL ELAPSED TIME SINCE BEGINNING OF SIMULATION =   6400.000       d
 .....................................................................

                     CUMMULATIVE MASS BUDGETS AT END OF TRANSPORT STEP    3, TIME STEP    6, STRESS PERIOD    3
                     ------------------------------------------------------------------------------------------

                                                             IN                           OUT
                                                      ----------------             ----------------
                               CONSTANT CONCENTRATION:    0.000000                    0.000000    
                                        CONSTANT HEAD:    0.000000                  -0.4080714E-19
                                             RECHARGE:    6922.991                    0.000000    
                                   EVAPOTRANSPIRATION:    0.000000                   0.8336362E-02
                                MASS STORAGE (SOLUTE):    28.03098                   -6939.583    
                            ---------------------------------------------------------------------------
                                              [TOTAL]:    6951.022       mg          -6939.575       mg

                                                          NET (IN - OUT):    11.44727    
                                                   DISCREPANCY (PERCENT):   0.1648204    


                                          ================================================
                                                         TIME STEP NO.  007
                                          ================================================

 FROM TIME =   6400.0     TO    7300.0    



     1 CALLS TO GCG PACKAGE FOR TRANSPORT TIME STEP   1 IN FLOW TIME STEP   7 STRESS PERIOD   3
    17 TOTAL ITERATIONS


     1 CALLS TO GCG PACKAGE FOR TRANSPORT TIME STEP   1 IN FLOW TIME STEP   7 STRESS PERIOD   3
    15 TOTAL ITERATIONS


     1 CALLS TO GCG PACKAGE FOR TRANSPORT TIME STEP   1 IN FLOW TIME STEP   7 STRESS PERIOD   3
    16 TOTAL ITERATIONS



 >>>>>>>>>>>>>>>>>>>>>>>>>>>>>>>>>>>>>>>>>>>>>>>>>>>>>>>FOR COMPONENT NO. 01<<<<<<<<<<<<<<<<<<<<<<<<<<<<<<<<<<<<<<<<<<<<<<<<<<<<<<<


                                            -------------------------------------------
                                                      TRANSPORT STEP NO.    1
                                            -------------------------------------------

 TOTAL ELAPSED TIME SINCE BEGINNING OF SIMULATION =   6783.466       d
 .....................................................................

                     CUMMULATIVE MASS BUDGETS AT END OF TRANSPORT STEP    1, TIME STEP    7, STRESS PERIOD    3
                     ------------------------------------------------------------------------------------------

                                                             IN                           OUT
                                                      ----------------             ----------------
                               CONSTANT CONCENTRATION:    0.000000                    0.000000    
                                        CONSTANT HEAD:    0.000000                  -0.5167467E-12
                                             RECHARGE:    2623625.                    0.000000    
                                   EVAPOTRANSPIRATION:    0.000000                   0.6341226    
                                MASS STORAGE (SOLUTE):    8681.056                   -2630926.    
                            ---------------------------------------------------------------------------
                                              [TOTAL]:    2632306.       mg          -2630925.       mg

                                                          NET (IN - OUT):    1381.500    
                                                   DISCREPANCY (PERCENT):   0.5249627E-01



 >>>>>>>>>>>>>>>>>>>>>>>>>>>>>>>>>>>>>>>>>>>>>>>>>>>>>>>FOR COMPONENT NO. 02<<<<<<<<<<<<<<<<<<<<<<<<<<<<<<<<<<<<<<<<<<<<<<<<<<<<<<<


                                            -------------------------------------------
                                                      TRANSPORT STEP NO.    1
                                            -------------------------------------------

 TOTAL ELAPSED TIME SINCE BEGINNING OF SIMULATION =   6783.466       d
 .....................................................................

                     CUMMULATIVE MASS BUDGETS AT END OF TRANSPORT STEP    1, TIME STEP    7, STRESS PERIOD    3
                     ------------------------------------------------------------------------------------------

                                                             IN                           OUT
                                                      ----------------             ----------------
                               CONSTANT CONCENTRATION:    0.000000                    0.000000    
                                        CONSTANT HEAD:    0.000000                  -0.4695706E-13
                                             RECHARGE:    171033.3                    0.000000    
                                   EVAPOTRANSPIRATION:    0.000000                   0.3276680E-01
                                MASS STORAGE (SOLUTE):    556.6658                   -171382.8    
                            ---------------------------------------------------------------------------
                                              [TOTAL]:    171589.9       mg          -171382.8       mg

                                                          NET (IN - OUT):    207.1562    
                                                   DISCREPANCY (PERCENT):   0.1208004    



 >>>>>>>>>>>>>>>>>>>>>>>>>>>>>>>>>>>>>>>>>>>>>>>>>>>>>>>FOR COMPONENT NO. 03<<<<<<<<<<<<<<<<<<<<<<<<<<<<<<<<<<<<<<<<<<<<<<<<<<<<<<<


                                            -------------------------------------------
                                                      TRANSPORT STEP NO.    1
                                            -------------------------------------------

 TOTAL ELAPSED TIME SINCE BEGINNING OF SIMULATION =   6783.466       d
 .....................................................................

                     CUMMULATIVE MASS BUDGETS AT END OF TRANSPORT STEP    1, TIME STEP    7, STRESS PERIOD    3
                     ------------------------------------------------------------------------------------------

                                                             IN                           OUT
                                                      ----------------             ----------------
                               CONSTANT CONCENTRATION:    0.000000                    0.000000    
                                        CONSTANT HEAD:    0.000000                  -0.1304063E-18
                                             RECHARGE:    7337.793                    0.000000    
                                   EVAPOTRANSPIRATION:    0.000000                   0.1078278E-01
                                MASS STORAGE (SOLUTE):    28.04382                   -7353.111    
                            ---------------------------------------------------------------------------
                                              [TOTAL]:    7365.837       mg          -7353.101       mg

                                                          NET (IN - OUT):    12.73682    
                                                   DISCREPANCY (PERCENT):   0.1730671    
     1 CALLS TO GCG PACKAGE FOR TRANSPORT TIME STEP   2 IN FLOW TIME STEP   7 STRESS PERIOD   3
    17 TOTAL ITERATIONS
     1 CALLS TO GCG PACKAGE FOR TRANSPORT TIME STEP   2 IN FLOW TIME STEP   7 STRESS PERIOD   3
    15 TOTAL ITERATIONS
     1 CALLS TO GCG PACKAGE FOR TRANSPORT TIME STEP   2 IN FLOW TIME STEP   7 STRESS PERIOD   3
    16 TOTAL ITERATIONS



 >>>>>>>>>>>>>>>>>>>>>>>>>>>>>>>>>>>>>>>>>>>>>>>>>>>>>>>FOR COMPONENT NO. 01<<<<<<<<<<<<<<<<<<<<<<<<<<<<<<<<<<<<<<<<<<<<<<<<<<<<<<<


                                            -------------------------------------------
                                                      TRANSPORT STEP NO.    2
                                            -------------------------------------------

 TOTAL ELAPSED TIME SINCE BEGINNING OF SIMULATION =   7166.933       d
 .....................................................................

                     CUMMULATIVE MASS BUDGETS AT END OF TRANSPORT STEP    2, TIME STEP    7, STRESS PERIOD    3
                     ------------------------------------------------------------------------------------------

                                                             IN                           OUT
                                                      ----------------             ----------------
                               CONSTANT CONCENTRATION:    0.000000                    0.000000    
                                        CONSTANT HEAD:    0.000000                  -0.1156652E-11
                                             RECHARGE:    2771938.                    0.000000    
                                   EVAPOTRANSPIRATION:    0.000000                   0.7299747    
                                MASS STORAGE (SOLUTE):    8690.627                   -2779128.    
                            ---------------------------------------------------------------------------
                                              [TOTAL]:    2780628.       mg          -2779128.       mg

                                                          NET (IN - OUT):    1500.750    
                                                   DISCREPANCY (PERCENT):   0.5398618E-01



 >>>>>>>>>>>>>>>>>>>>>>>>>>>>>>>>>>>>>>>>>>>>>>>>>>>>>>>FOR COMPONENT NO. 02<<<<<<<<<<<<<<<<<<<<<<<<<<<<<<<<<<<<<<<<<<<<<<<<<<<<<<<


                                            -------------------------------------------
                                                      TRANSPORT STEP NO.    2
                                            -------------------------------------------

 TOTAL ELAPSED TIME SINCE BEGINNING OF SIMULATION =   7166.933       d
 .....................................................................

                     CUMMULATIVE MASS BUDGETS AT END OF TRANSPORT STEP    2, TIME STEP    7, STRESS PERIOD    3
                     ------------------------------------------------------------------------------------------

                                                             IN                           OUT
                                                      ----------------             ----------------
                               CONSTANT CONCENTRATION:    0.000000                    0.000000    
                                        CONSTANT HEAD:    0.000000                  -0.1045523E-12
                                             RECHARGE:    180701.7                    0.000000    
                                   EVAPOTRANSPIRATION:    0.000000                   0.3923260E-01
                                MASS STORAGE (SOLUTE):    557.5234                   -181031.2    
                            ---------------------------------------------------------------------------
                                              [TOTAL]:    181259.2       mg          -181031.1       mg

                                                          NET (IN - OUT):    228.0781    
                                                   DISCREPANCY (PERCENT):   0.1259090    



 >>>>>>>>>>>>>>>>>>>>>>>>>>>>>>>>>>>>>>>>>>>>>>>>>>>>>>>FOR COMPONENT NO. 03<<<<<<<<<<<<<<<<<<<<<<<<<<<<<<<<<<<<<<<<<<<<<<<<<<<<<<<


                                            -------------------------------------------
                                                      TRANSPORT STEP NO.    2
                                            -------------------------------------------

 TOTAL ELAPSED TIME SINCE BEGINNING OF SIMULATION =   7166.933       d
 .....................................................................

                     CUMMULATIVE MASS BUDGETS AT END OF TRANSPORT STEP    2, TIME STEP    7, STRESS PERIOD    3
                     ------------------------------------------------------------------------------------------

                                                             IN                           OUT
                                                      ----------------             ----------------
                               CONSTANT CONCENTRATION:    0.000000                    0.000000    
                                        CONSTANT HEAD:    0.000000                  -0.3809687E-18
                                             RECHARGE:    7752.596                    0.000000    
                                   EVAPOTRANSPIRATION:    0.000000                   0.1340322E-01
                                MASS STORAGE (SOLUTE):    28.05639                   -7766.773    
                            ---------------------------------------------------------------------------
                                              [TOTAL]:    7780.652       mg          -7766.760       mg

                                                          NET (IN - OUT):    13.89209    
                                                   DISCREPANCY (PERCENT):   0.1787061    
     1 CALLS TO GCG PACKAGE FOR TRANSPORT TIME STEP   3 IN FLOW TIME STEP   7 STRESS PERIOD   3
     9 TOTAL ITERATIONS
  MAXIMUM CONCENTRATION CHANGES FOR EACH ITERATION:
  MAX. CHANGE LAYER,ROW,COL MAX. CHANGE LAYER,ROW,COL MAX. CHANGE LAYER,ROW,COL MAX. CHANGE LAYER,ROW,COL MAX. CHANGE LAYER,ROW,COL
 ------------------------------------------------------------------------------------------------------------------------------------
   0.5221E-01 (  1,213,127)  0.3422E-01 (  1,210,124)  0.1319E-01 (  1,210,121)  0.6508E-02 (  1,210,127)  0.2701E-02 (  1,209,127)
   0.1020E-02 (  1,207,126)  0.4804E-03 (  1,208,126)  0.1944E-03 (  1,209,126)  0.9668E-04 (  1,211,131)
     1 CALLS TO GCG PACKAGE FOR TRANSPORT TIME STEP   3 IN FLOW TIME STEP   7 STRESS PERIOD   3
     9 TOTAL ITERATIONS
  MAXIMUM CONCENTRATION CHANGES FOR EACH ITERATION:
  MAX. CHANGE LAYER,ROW,COL MAX. CHANGE LAYER,ROW,COL MAX. CHANGE LAYER,ROW,COL MAX. CHANGE LAYER,ROW,COL MAX. CHANGE LAYER,ROW,COL
 ------------------------------------------------------------------------------------------------------------------------------------
   0.7629E-01 (  1,131,254)  0.2506E-01 (  1,129,254)  0.9617E-02 (  1,130,258)  0.3770E-02 (  1,128,252)  0.1952E-02 (  1,131,254)
   0.7309E-03 (  1,126,255)  0.2689E-03 (  1,125,255)  0.1205E-03 (  1,131,256)  0.4351E-04 (  1,121,254)
     1 CALLS TO GCG PACKAGE FOR TRANSPORT TIME STEP   3 IN FLOW TIME STEP   7 STRESS PERIOD   3
     9 TOTAL ITERATIONS
  MAXIMUM CONCENTRATION CHANGES FOR EACH ITERATION:
  MAX. CHANGE LAYER,ROW,COL MAX. CHANGE LAYER,ROW,COL MAX. CHANGE LAYER,ROW,COL MAX. CHANGE LAYER,ROW,COL MAX. CHANGE LAYER,ROW,COL
 ------------------------------------------------------------------------------------------------------------------------------------
   0.5313E-01 (  1,193, 55)  0.3545E-01 (  1,190, 53)  0.1541E-01 (  1,190, 51)  0.5922E-02 (  1,190, 55)  0.2441E-02 (  1,192, 53)
   0.7330E-03 (  1,191, 53)  0.3690E-03 (  1,188, 54)  0.1775E-03 (  1,189, 54)  0.7707E-04 (  1,191, 59)



 >>>>>>>>>>>>>>>>>>>>>>>>>>>>>>>>>>>>>>>>>>>>>>>>>>>>>>>FOR COMPONENT NO. 01<<<<<<<<<<<<<<<<<<<<<<<<<<<<<<<<<<<<<<<<<<<<<<<<<<<<<<<


                                            -------------------------------------------
                                                      TRANSPORT STEP NO.    3
                                            -------------------------------------------

 TOTAL ELAPSED TIME SINCE BEGINNING OF SIMULATION =   7300.000       d
 .....................................................................

                     CUMMULATIVE MASS BUDGETS AT END OF TRANSPORT STEP    3, TIME STEP    7, STRESS PERIOD    3
                     ------------------------------------------------------------------------------------------

                                                             IN                           OUT
                                                      ----------------             ----------------
                               CONSTANT CONCENTRATION:    0.000000                    0.000000    
                                        CONSTANT HEAD:    0.000000                  -0.1429376E-11
                                             RECHARGE:    2823404.                    0.000000    
                                   EVAPOTRANSPIRATION:    0.000000                   0.7694934    
                                MASS STORAGE (SOLUTE):    11621.89                   -2833347.    
                            ---------------------------------------------------------------------------
                                              [TOTAL]:    2835026.       mg          -2833346.       mg

                                                          NET (IN - OUT):    1679.750    
                                                   DISCREPANCY (PERCENT):   0.5926746E-01



 >>>>>>>>>>>>>>>>>>>>>>>>>>>>>>>>>>>>>>>>>>>>>>>>>>>>>>>FOR COMPONENT NO. 02<<<<<<<<<<<<<<<<<<<<<<<<<<<<<<<<<<<<<<<<<<<<<<<<<<<<<<<


                                            -------------------------------------------
                                                      TRANSPORT STEP NO.    3
                                            -------------------------------------------

 TOTAL ELAPSED TIME SINCE BEGINNING OF SIMULATION =   7300.000       d
 .....................................................................

                     CUMMULATIVE MASS BUDGETS AT END OF TRANSPORT STEP    3, TIME STEP    7, STRESS PERIOD    3
                     ------------------------------------------------------------------------------------------

                                                             IN                           OUT
                                                      ----------------             ----------------
                               CONSTANT CONCENTRATION:    0.000000                    0.000000    
                                        CONSTANT HEAD:    0.000000                  -0.1290816E-12
                                             RECHARGE:    184056.8                    0.000000    
                                   EVAPOTRANSPIRATION:    0.000000                   0.4182591E-01
                                MASS STORAGE (SOLUTE):    746.4395                   -184570.0    
                            ---------------------------------------------------------------------------
                                              [TOTAL]:    184803.2       mg          -184569.9       mg

                                                          NET (IN - OUT):    233.2969    
                                                   DISCREPANCY (PERCENT):   0.1263204    



 >>>>>>>>>>>>>>>>>>>>>>>>>>>>>>>>>>>>>>>>>>>>>>>>>>>>>>>FOR COMPONENT NO. 03<<<<<<<<<<<<<<<<<<<<<<<<<<<<<<<<<<<<<<<<<<<<<<<<<<<<<<<


                                            -------------------------------------------
                                                      TRANSPORT STEP NO.    3
                                            -------------------------------------------

 TOTAL ELAPSED TIME SINCE BEGINNING OF SIMULATION =   7300.000       d
 .....................................................................

                     CUMMULATIVE MASS BUDGETS AT END OF TRANSPORT STEP    3, TIME STEP    7, STRESS PERIOD    3
                     ------------------------------------------------------------------------------------------

                                                             IN                           OUT
                                                      ----------------             ----------------
                               CONSTANT CONCENTRATION:    0.000000                    0.000000    
                                        CONSTANT HEAD:    0.000000                  -0.4883329E-18
                                             RECHARGE:    7896.537                    0.000000    
                                   EVAPOTRANSPIRATION:    0.000000                   0.1445761E-01
                                MASS STORAGE (SOLUTE):    37.14392                   -7919.208    
                            ---------------------------------------------------------------------------
                                              [TOTAL]:    7933.681       mg          -7919.193       mg

                                                          NET (IN - OUT):    14.48779    
                                                   DISCREPANCY (PERCENT):   0.1827781    


                                          ================================================
                                                         TIME STEP NO.  008
                                          ================================================

 FROM TIME =   7300.0     TO    8200.0    



     1 CALLS TO GCG PACKAGE FOR TRANSPORT TIME STEP   1 IN FLOW TIME STEP   8 STRESS PERIOD   3
    17 TOTAL ITERATIONS


     1 CALLS TO GCG PACKAGE FOR TRANSPORT TIME STEP   1 IN FLOW TIME STEP   8 STRESS PERIOD   3
    15 TOTAL ITERATIONS


     1 CALLS TO GCG PACKAGE FOR TRANSPORT TIME STEP   1 IN FLOW TIME STEP   8 STRESS PERIOD   3
    15 TOTAL ITERATIONS



 >>>>>>>>>>>>>>>>>>>>>>>>>>>>>>>>>>>>>>>>>>>>>>>>>>>>>>>FOR COMPONENT NO. 01<<<<<<<<<<<<<<<<<<<<<<<<<<<<<<<<<<<<<<<<<<<<<<<<<<<<<<<


                                            -------------------------------------------
                                                      TRANSPORT STEP NO.    1
                                            -------------------------------------------

 TOTAL ELAPSED TIME SINCE BEGINNING OF SIMULATION =   7683.466       d
 .....................................................................

                     CUMMULATIVE MASS BUDGETS AT END OF TRANSPORT STEP    1, TIME STEP    8, STRESS PERIOD    3
                     ------------------------------------------------------------------------------------------

                                                             IN                           OUT
                                                      ----------------             ----------------
                               CONSTANT CONCENTRATION:    0.000000                    0.000000    
                                        CONSTANT HEAD:    0.000000                  -0.3040983E-11
                                             RECHARGE:    2971716.                    0.000000    
                                   EVAPOTRANSPIRATION:    0.000000                   0.8790901    
                                MASS STORAGE (SOLUTE):    11641.68                   -2981531.    
                            ---------------------------------------------------------------------------
                                              [TOTAL]:    2983358.       mg          -2981530.       mg

                                                          NET (IN - OUT):    1828.000    
                                                   DISCREPANCY (PERCENT):   0.6129201E-01



 >>>>>>>>>>>>>>>>>>>>>>>>>>>>>>>>>>>>>>>>>>>>>>>>>>>>>>>FOR COMPONENT NO. 02<<<<<<<<<<<<<<<<<<<<<<<<<<<<<<<<<<<<<<<<<<<<<<<<<<<<<<<


                                            -------------------------------------------
                                                      TRANSPORT STEP NO.    1
                                            -------------------------------------------

 TOTAL ELAPSED TIME SINCE BEGINNING OF SIMULATION =   7683.466       d
 .....................................................................

                     CUMMULATIVE MASS BUDGETS AT END OF TRANSPORT STEP    1, TIME STEP    8, STRESS PERIOD    3
                     ------------------------------------------------------------------------------------------

                                                             IN                           OUT
                                                      ----------------             ----------------
                               CONSTANT CONCENTRATION:    0.000000                    0.000000    
                                        CONSTANT HEAD:    0.000000                  -0.2735107E-12
                                             RECHARGE:    193725.2                    0.000000    
                                   EVAPOTRANSPIRATION:    0.000000                   0.4944508E-01
                                MASS STORAGE (SOLUTE):    747.4384                   -194218.0    
                            ---------------------------------------------------------------------------
                                              [TOTAL]:    194472.6       mg          -194217.9       mg

                                                          NET (IN - OUT):    254.7031    
                                                   DISCREPANCY (PERCENT):   0.1310570    



 >>>>>>>>>>>>>>>>>>>>>>>>>>>>>>>>>>>>>>>>>>>>>>>>>>>>>>>FOR COMPONENT NO. 03<<<<<<<<<<<<<<<<<<<<<<<<<<<<<<<<<<<<<<<<<<<<<<<<<<<<<<<


                                            -------------------------------------------
                                                      TRANSPORT STEP NO.    1
                                            -------------------------------------------

 TOTAL ELAPSED TIME SINCE BEGINNING OF SIMULATION =   7683.466       d
 .....................................................................

                     CUMMULATIVE MASS BUDGETS AT END OF TRANSPORT STEP    1, TIME STEP    8, STRESS PERIOD    3
                     ------------------------------------------------------------------------------------------

                                                             IN                           OUT
                                                      ----------------             ----------------
                               CONSTANT CONCENTRATION:    0.000000                    0.000000    
                                        CONSTANT HEAD:    0.000000                  -0.1315330E-17
                                             RECHARGE:    8311.340                    0.000000    
                                   EVAPOTRANSPIRATION:    0.000000                   0.1754937E-01
                                MASS STORAGE (SOLUTE):    37.20051                   -8331.718    
                            ---------------------------------------------------------------------------
                                              [TOTAL]:    8348.540       mg          -8331.700       mg

                                                          NET (IN - OUT):    16.83984    
                                                   DISCREPANCY (PERCENT):   0.2019137    
     1 CALLS TO GCG PACKAGE FOR TRANSPORT TIME STEP   2 IN FLOW TIME STEP   8 STRESS PERIOD   3
    16 TOTAL ITERATIONS
     1 CALLS TO GCG PACKAGE FOR TRANSPORT TIME STEP   2 IN FLOW TIME STEP   8 STRESS PERIOD   3
    15 TOTAL ITERATIONS
     1 CALLS TO GCG PACKAGE FOR TRANSPORT TIME STEP   2 IN FLOW TIME STEP   8 STRESS PERIOD   3
    15 TOTAL ITERATIONS



 >>>>>>>>>>>>>>>>>>>>>>>>>>>>>>>>>>>>>>>>>>>>>>>>>>>>>>>FOR COMPONENT NO. 01<<<<<<<<<<<<<<<<<<<<<<<<<<<<<<<<<<<<<<<<<<<<<<<<<<<<<<<


                                            -------------------------------------------
                                                      TRANSPORT STEP NO.    2
                                            -------------------------------------------

 TOTAL ELAPSED TIME SINCE BEGINNING OF SIMULATION =   8066.933       d
 .....................................................................

                     CUMMULATIVE MASS BUDGETS AT END OF TRANSPORT STEP    2, TIME STEP    8, STRESS PERIOD    3
                     ------------------------------------------------------------------------------------------

                                                             IN                           OUT
                                                      ----------------             ----------------
                               CONSTANT CONCENTRATION:    0.000000                    0.000000    
                                        CONSTANT HEAD:    0.000000                  -0.6295003E-11
                                             RECHARGE:    3120029.                    0.000000    
                                   EVAPOTRANSPIRATION:    0.000000                   0.9884321    
                                MASS STORAGE (SOLUTE):    11649.64                   -3129520.    
                            ---------------------------------------------------------------------------
                                              [TOTAL]:    3131679.       mg          -3129519.       mg

                                                          NET (IN - OUT):    2160.000    
                                                   DISCREPANCY (PERCENT):   0.6899638E-01



 >>>>>>>>>>>>>>>>>>>>>>>>>>>>>>>>>>>>>>>>>>>>>>>>>>>>>>>FOR COMPONENT NO. 02<<<<<<<<<<<<<<<<<<<<<<<<<<<<<<<<<<<<<<<<<<<<<<<<<<<<<<<


                                            -------------------------------------------
                                                      TRANSPORT STEP NO.    2
                                            -------------------------------------------

 TOTAL ELAPSED TIME SINCE BEGINNING OF SIMULATION =   8066.933       d
 .....................................................................

                     CUMMULATIVE MASS BUDGETS AT END OF TRANSPORT STEP    2, TIME STEP    8, STRESS PERIOD    3
                     ------------------------------------------------------------------------------------------

                                                             IN                           OUT
                                                      ----------------             ----------------
                               CONSTANT CONCENTRATION:    0.000000                    0.000000    
                                        CONSTANT HEAD:    0.000000                  -0.5645082E-12
                                             RECHARGE:    203393.6                    0.000000    
                                   EVAPOTRANSPIRATION:    0.000000                   0.5752099E-01
                                MASS STORAGE (SOLUTE):    748.1542                   -203866.0    
                            ---------------------------------------------------------------------------
                                              [TOTAL]:    204141.8       mg          -203865.9       mg

                                                          NET (IN - OUT):    275.8750    
                                                   DISCREPANCY (PERCENT):   0.1352303    



 >>>>>>>>>>>>>>>>>>>>>>>>>>>>>>>>>>>>>>>>>>>>>>>>>>>>>>>FOR COMPONENT NO. 03<<<<<<<<<<<<<<<<<<<<<<<<<<<<<<<<<<<<<<<<<<<<<<<<<<<<<<<


                                            -------------------------------------------
                                                      TRANSPORT STEP NO.    2
                                            -------------------------------------------

 TOTAL ELAPSED TIME SINCE BEGINNING OF SIMULATION =   8066.933       d
 .....................................................................

                     CUMMULATIVE MASS BUDGETS AT END OF TRANSPORT STEP    2, TIME STEP    8, STRESS PERIOD    3
                     ------------------------------------------------------------------------------------------

                                                             IN                           OUT
                                                      ----------------             ----------------
                               CONSTANT CONCENTRATION:    0.000000                    0.000000    
                                        CONSTANT HEAD:    0.000000                  -0.3305496E-17
                                             RECHARGE:    8726.143                    0.000000    
                                   EVAPOTRANSPIRATION:    0.000000                   0.2085643E-01
                                MASS STORAGE (SOLUTE):    37.21399                   -8744.323    
                            ---------------------------------------------------------------------------
                                              [TOTAL]:    8763.356       mg          -8744.303       mg

                                                          NET (IN - OUT):    19.05371    
                                                   DISCREPANCY (PERCENT):   0.2176614    
     1 CALLS TO GCG PACKAGE FOR TRANSPORT TIME STEP   3 IN FLOW TIME STEP   8 STRESS PERIOD   3
     9 TOTAL ITERATIONS
  MAXIMUM CONCENTRATION CHANGES FOR EACH ITERATION:
  MAX. CHANGE LAYER,ROW,COL MAX. CHANGE LAYER,ROW,COL MAX. CHANGE LAYER,ROW,COL MAX. CHANGE LAYER,ROW,COL MAX. CHANGE LAYER,ROW,COL
 ------------------------------------------------------------------------------------------------------------------------------------
   0.5151E-01 (  1,213,127)  0.3395E-01 (  1,210,124)  0.1289E-01 (  1,210,121)  0.6425E-02 (  1,210,127)  0.2675E-02 (  1,209,127)
   0.1004E-02 (  1,207,126)  0.4643E-03 (  1,208,126)  0.1854E-03 (  1,209,126)  0.9018E-04 (  1,211,131)
     1 CALLS TO GCG PACKAGE FOR TRANSPORT TIME STEP   3 IN FLOW TIME STEP   8 STRESS PERIOD   3
     9 TOTAL ITERATIONS
  MAXIMUM CONCENTRATION CHANGES FOR EACH ITERATION:
  MAX. CHANGE LAYER,ROW,COL MAX. CHANGE LAYER,ROW,COL MAX. CHANGE LAYER,ROW,COL MAX. CHANGE LAYER,ROW,COL MAX. CHANGE LAYER,ROW,COL
 ------------------------------------------------------------------------------------------------------------------------------------
   0.7530E-01 (  1,131,254)  0.2513E-01 (  1,129,254)  0.9531E-02 (  1,130,258)  0.3744E-02 (  1,128,252)  0.1920E-02 (  1,131,254)
   0.7272E-03 (  1,126,255)  0.2694E-03 (  1,125,255)  0.1172E-03 (  1,131,256)  0.4211E-04 (  1,121,254)
     1 CALLS TO GCG PACKAGE FOR TRANSPORT TIME STEP   3 IN FLOW TIME STEP   8 STRESS PERIOD   3
     9 TOTAL ITERATIONS
  MAXIMUM CONCENTRATION CHANGES FOR EACH ITERATION:
  MAX. CHANGE LAYER,ROW,COL MAX. CHANGE LAYER,ROW,COL MAX. CHANGE LAYER,ROW,COL MAX. CHANGE LAYER,ROW,COL MAX. CHANGE LAYER,ROW,COL
 ------------------------------------------------------------------------------------------------------------------------------------
   0.5293E-01 (  1,193, 55)  0.3532E-01 (  1,190, 53)  0.1521E-01 (  1,190, 51)  0.5912E-02 (  1,190, 55)  0.2392E-02 (  1,192, 53)
   0.7304E-03 (  1,185, 54)  0.3561E-03 (  1,188, 54)  0.1704E-03 (  1,189, 54)  0.7361E-04 (  1,191, 59)



 >>>>>>>>>>>>>>>>>>>>>>>>>>>>>>>>>>>>>>>>>>>>>>>>>>>>>>>FOR COMPONENT NO. 01<<<<<<<<<<<<<<<<<<<<<<<<<<<<<<<<<<<<<<<<<<<<<<<<<<<<<<<


                                            -------------------------------------------
                                                      TRANSPORT STEP NO.    3
                                            -------------------------------------------

 TOTAL ELAPSED TIME SINCE BEGINNING OF SIMULATION =   8200.000       d
 .....................................................................

                     CUMMULATIVE MASS BUDGETS AT END OF TRANSPORT STEP    3, TIME STEP    8, STRESS PERIOD    3
                     ------------------------------------------------------------------------------------------

                                                             IN                           OUT
                                                      ----------------             ----------------
                               CONSTANT CONCENTRATION:    0.000000                    0.000000    
                                        CONSTANT HEAD:    0.000000                  -0.7662799E-11
                                             RECHARGE:    3171495.                    0.000000    
                                   EVAPOTRANSPIRATION:    0.000000                    1.031311    
                                MASS STORAGE (SOLUTE):    14856.68                   -3184008.    
                            ---------------------------------------------------------------------------
                                              [TOTAL]:    3186352.       mg          -3184007.       mg

                                                          NET (IN - OUT):    2344.750    
                                                   DISCREPANCY (PERCENT):   0.7361437E-01



 >>>>>>>>>>>>>>>>>>>>>>>>>>>>>>>>>>>>>>>>>>>>>>>>>>>>>>>FOR COMPONENT NO. 02<<<<<<<<<<<<<<<<<<<<<<<<<<<<<<<<<<<<<<<<<<<<<<<<<<<<<<<


                                            -------------------------------------------
                                                      TRANSPORT STEP NO.    3
                                            -------------------------------------------

 TOTAL ELAPSED TIME SINCE BEGINNING OF SIMULATION =   8200.000       d
 .....................................................................

                     CUMMULATIVE MASS BUDGETS AT END OF TRANSPORT STEP    3, TIME STEP    8, STRESS PERIOD    3
                     ------------------------------------------------------------------------------------------

                                                             IN                           OUT
                                                      ----------------             ----------------
                               CONSTANT CONCENTRATION:    0.000000                    0.000000    
                                        CONSTANT HEAD:    0.000000                  -0.6867767E-12
                                             RECHARGE:    206748.7                    0.000000    
                                   EVAPOTRANSPIRATION:    0.000000                   0.6062712E-01
                                MASS STORAGE (SOLUTE):    955.1890                   -207422.8    
                            ---------------------------------------------------------------------------
                                              [TOTAL]:    207703.9       mg          -207422.8       mg

                                                          NET (IN - OUT):    281.1406    
                                                   DISCREPANCY (PERCENT):   0.1354481    



 >>>>>>>>>>>>>>>>>>>>>>>>>>>>>>>>>>>>>>>>>>>>>>>>>>>>>>>FOR COMPONENT NO. 03<<<<<<<<<<<<<<<<<<<<<<<<<<<<<<<<<<<<<<<<<<<<<<<<<<<<<<<


                                            -------------------------------------------
                                                      TRANSPORT STEP NO.    3
                                            -------------------------------------------

 TOTAL ELAPSED TIME SINCE BEGINNING OF SIMULATION =   8200.000       d
 .....................................................................

                     CUMMULATIVE MASS BUDGETS AT END OF TRANSPORT STEP    3, TIME STEP    8, STRESS PERIOD    3
                     ------------------------------------------------------------------------------------------

                                                             IN                           OUT
                                                      ----------------             ----------------
                               CONSTANT CONCENTRATION:    0.000000                    0.000000    
                                        CONSTANT HEAD:    0.000000                  -0.4130842E-17
                                             RECHARGE:    8870.084                    0.000000    
                                   EVAPOTRANSPIRATION:    0.000000                   0.2213256E-01
                                MASS STORAGE (SOLUTE):    47.05742                   -8897.490    
                            ---------------------------------------------------------------------------
                                              [TOTAL]:    8917.142       mg          -8897.468       mg

                                                          NET (IN - OUT):    19.67383    
                                                   DISCREPANCY (PERCENT):   0.2208730    


                                          ================================================
                                                         TIME STEP NO.  009
                                          ================================================

 FROM TIME =   8200.0     TO    9100.0    



     1 CALLS TO GCG PACKAGE FOR TRANSPORT TIME STEP   1 IN FLOW TIME STEP   9 STRESS PERIOD   3
    16 TOTAL ITERATIONS


     1 CALLS TO GCG PACKAGE FOR TRANSPORT TIME STEP   1 IN FLOW TIME STEP   9 STRESS PERIOD   3
    15 TOTAL ITERATIONS


     1 CALLS TO GCG PACKAGE FOR TRANSPORT TIME STEP   1 IN FLOW TIME STEP   9 STRESS PERIOD   3
    15 TOTAL ITERATIONS



 >>>>>>>>>>>>>>>>>>>>>>>>>>>>>>>>>>>>>>>>>>>>>>>>>>>>>>>FOR COMPONENT NO. 01<<<<<<<<<<<<<<<<<<<<<<<<<<<<<<<<<<<<<<<<<<<<<<<<<<<<<<<


                                            -------------------------------------------
                                                      TRANSPORT STEP NO.    1
                                            -------------------------------------------

 TOTAL ELAPSED TIME SINCE BEGINNING OF SIMULATION =   8583.467       d
 .....................................................................

                     CUMMULATIVE MASS BUDGETS AT END OF TRANSPORT STEP    1, TIME STEP    9, STRESS PERIOD    3
                     ------------------------------------------------------------------------------------------

                                                             IN                           OUT
                                                      ----------------             ----------------
                               CONSTANT CONCENTRATION:    0.000000                    0.000000    
                                        CONSTANT HEAD:    0.000000                  -0.1522678E-10
                                             RECHARGE:    3319808.                    0.000000    
                                   EVAPOTRANSPIRATION:    0.000000                    1.149312    
                                MASS STORAGE (SOLUTE):    14903.73                   -3331980.    
                            ---------------------------------------------------------------------------
                                              [TOTAL]:    3334712.       mg          -3331978.       mg

                                                          NET (IN - OUT):    2733.000    
                                                   DISCREPANCY (PERCENT):   0.8198971E-01



 >>>>>>>>>>>>>>>>>>>>>>>>>>>>>>>>>>>>>>>>>>>>>>>>>>>>>>>FOR COMPONENT NO. 02<<<<<<<<<<<<<<<<<<<<<<<<<<<<<<<<<<<<<<<<<<<<<<<<<<<<<<<


                                            -------------------------------------------
                                                      TRANSPORT STEP NO.    1
                                            -------------------------------------------

 TOTAL ELAPSED TIME SINCE BEGINNING OF SIMULATION =   8583.467       d
 .....................................................................

                     CUMMULATIVE MASS BUDGETS AT END OF TRANSPORT STEP    1, TIME STEP    9, STRESS PERIOD    3
                     ------------------------------------------------------------------------------------------

                                                             IN                           OUT
                                                      ----------------             ----------------
                               CONSTANT CONCENTRATION:    0.000000                    0.000000    
                                        CONSTANT HEAD:    0.000000                  -0.1361758E-11
                                             RECHARGE:    216417.1                    0.000000    
                                   EVAPOTRANSPIRATION:    0.000000                   0.6984037E-01
                                MASS STORAGE (SOLUTE):    956.9397                   -217071.5    
                            ---------------------------------------------------------------------------
                                              [TOTAL]:    217374.1       mg          -217071.5       mg

                                                          NET (IN - OUT):    302.6250    
                                                   DISCREPANCY (PERCENT):   0.1393155    



 >>>>>>>>>>>>>>>>>>>>>>>>>>>>>>>>>>>>>>>>>>>>>>>>>>>>>>>FOR COMPONENT NO. 03<<<<<<<<<<<<<<<<<<<<<<<<<<<<<<<<<<<<<<<<<<<<<<<<<<<<<<<


                                            -------------------------------------------
                                                      TRANSPORT STEP NO.    1
                                            -------------------------------------------

 TOTAL ELAPSED TIME SINCE BEGINNING OF SIMULATION =   8583.467       d
 .....................................................................

                     CUMMULATIVE MASS BUDGETS AT END OF TRANSPORT STEP    1, TIME STEP    9, STRESS PERIOD    3
                     ------------------------------------------------------------------------------------------

                                                             IN                           OUT
                                                      ----------------             ----------------
                               CONSTANT CONCENTRATION:    0.000000                    0.000000    
                                        CONSTANT HEAD:    0.000000                  -0.9651184E-17
                                             RECHARGE:    9284.887                    0.000000    
                                   EVAPOTRANSPIRATION:    0.000000                   0.2596297E-01
                                MASS STORAGE (SOLUTE):    47.25726                   -9310.078    
                            ---------------------------------------------------------------------------
                                              [TOTAL]:    9332.144       mg          -9310.052       mg

                                                          NET (IN - OUT):    22.09180    
                                                   DISCREPANCY (PERCENT):   0.2370085    
     1 CALLS TO GCG PACKAGE FOR TRANSPORT TIME STEP   2 IN FLOW TIME STEP   9 STRESS PERIOD   3
    16 TOTAL ITERATIONS
     1 CALLS TO GCG PACKAGE FOR TRANSPORT TIME STEP   2 IN FLOW TIME STEP   9 STRESS PERIOD   3
    15 TOTAL ITERATIONS
     1 CALLS TO GCG PACKAGE FOR TRANSPORT TIME STEP   2 IN FLOW TIME STEP   9 STRESS PERIOD   3
    15 TOTAL ITERATIONS



 >>>>>>>>>>>>>>>>>>>>>>>>>>>>>>>>>>>>>>>>>>>>>>>>>>>>>>>FOR COMPONENT NO. 01<<<<<<<<<<<<<<<<<<<<<<<<<<<<<<<<<<<<<<<<<<<<<<<<<<<<<<<


                                            -------------------------------------------
                                                      TRANSPORT STEP NO.    2
                                            -------------------------------------------

 TOTAL ELAPSED TIME SINCE BEGINNING OF SIMULATION =   8966.934       d
 .....................................................................

                     CUMMULATIVE MASS BUDGETS AT END OF TRANSPORT STEP    2, TIME STEP    9, STRESS PERIOD    3
                     ------------------------------------------------------------------------------------------

                                                             IN                           OUT
                                                      ----------------             ----------------
                               CONSTANT CONCENTRATION:    0.000000                    0.000000    
                                        CONSTANT HEAD:    0.000000                  -0.2957723E-10
                                             RECHARGE:    3468120.                    0.000000    
                                   EVAPOTRANSPIRATION:    0.000000                    1.256553    
                                MASS STORAGE (SOLUTE):    14910.12                   -3479924.    
                            ---------------------------------------------------------------------------
                                              [TOTAL]:    3483030.       mg          -3479923.       mg

                                                          NET (IN - OUT):    3107.500    
                                                   DISCREPANCY (PERCENT):   0.8925810E-01



 >>>>>>>>>>>>>>>>>>>>>>>>>>>>>>>>>>>>>>>>>>>>>>>>>>>>>>>FOR COMPONENT NO. 02<<<<<<<<<<<<<<<<<<<<<<<<<<<<<<<<<<<<<<<<<<<<<<<<<<<<<<<


                                            -------------------------------------------
                                                      TRANSPORT STEP NO.    2
                                            -------------------------------------------

 TOTAL ELAPSED TIME SINCE BEGINNING OF SIMULATION =   8966.934       d
 .....................................................................

                     CUMMULATIVE MASS BUDGETS AT END OF TRANSPORT STEP    2, TIME STEP    9, STRESS PERIOD    3
                     ------------------------------------------------------------------------------------------

                                                             IN                           OUT
                                                      ----------------             ----------------
                               CONSTANT CONCENTRATION:    0.000000                    0.000000    
                                        CONSTANT HEAD:    0.000000                  -0.2640396E-11
                                             RECHARGE:    226085.6                    0.000000    
                                   EVAPOTRANSPIRATION:    0.000000                   0.7914791E-01
                                MASS STORAGE (SOLUTE):    957.5199                   -226719.2    
                            ---------------------------------------------------------------------------
                                              [TOTAL]:    227043.1       mg          -226719.2       mg

                                                          NET (IN - OUT):    323.9219    
                                                   DISCREPANCY (PERCENT):   0.1427716    



 >>>>>>>>>>>>>>>>>>>>>>>>>>>>>>>>>>>>>>>>>>>>>>>>>>>>>>>FOR COMPONENT NO. 03<<<<<<<<<<<<<<<<<<<<<<<<<<<<<<<<<<<<<<<<<<<<<<<<<<<<<<<


                                            -------------------------------------------
                                                      TRANSPORT STEP NO.    2
                                            -------------------------------------------

 TOTAL ELAPSED TIME SINCE BEGINNING OF SIMULATION =   8966.934       d
 .....................................................................

                     CUMMULATIVE MASS BUDGETS AT END OF TRANSPORT STEP    2, TIME STEP    9, STRESS PERIOD    3
                     ------------------------------------------------------------------------------------------

                                                             IN                           OUT
                                                      ----------------             ----------------
                               CONSTANT CONCENTRATION:    0.000000                    0.000000    
                                        CONSTANT HEAD:    0.000000                  -0.2142048E-16
                                             RECHARGE:    9699.689                    0.000000    
                                   EVAPOTRANSPIRATION:    0.000000                   0.2988860E-01
                                MASS STORAGE (SOLUTE):    47.26950                   -9722.570    
                            ---------------------------------------------------------------------------
                                              [TOTAL]:    9746.959       mg          -9722.540       mg

                                                          NET (IN - OUT):    24.41895    
                                                   DISCREPANCY (PERCENT):   0.2508431    
     1 CALLS TO GCG PACKAGE FOR TRANSPORT TIME STEP   3 IN FLOW TIME STEP   9 STRESS PERIOD   3
     9 TOTAL ITERATIONS
  MAXIMUM CONCENTRATION CHANGES FOR EACH ITERATION:
  MAX. CHANGE LAYER,ROW,COL MAX. CHANGE LAYER,ROW,COL MAX. CHANGE LAYER,ROW,COL MAX. CHANGE LAYER,ROW,COL MAX. CHANGE LAYER,ROW,COL
 ------------------------------------------------------------------------------------------------------------------------------------
   0.5107E-01 (  1,213,127)  0.3368E-01 (  1,210,124)  0.1261E-01 (  1,210,121)  0.6372E-02 (  1,210,127)  0.2658E-02 (  1,209,127)
   0.9952E-03 (  1,207,126)  0.4581E-03 (  1,208,126)  0.1830E-03 (  1,209,126)  0.8953E-04 (  1,209,125)
     1 CALLS TO GCG PACKAGE FOR TRANSPORT TIME STEP   3 IN FLOW TIME STEP   9 STRESS PERIOD   3
     9 TOTAL ITERATIONS
  MAXIMUM CONCENTRATION CHANGES FOR EACH ITERATION:
  MAX. CHANGE LAYER,ROW,COL MAX. CHANGE LAYER,ROW,COL MAX. CHANGE LAYER,ROW,COL MAX. CHANGE LAYER,ROW,COL MAX. CHANGE LAYER,ROW,COL
 ------------------------------------------------------------------------------------------------------------------------------------
   0.7450E-01 (  1,131,254)  0.2523E-01 (  1,131,257)  0.9476E-02 (  1,130,258)  0.3726E-02 (  1,128,252)  0.1894E-02 (  1,131,254)
   0.7257E-03 (  1,126,255)  0.2701E-03 (  1,125,255)  0.1143E-03 (  1,131,256)  0.4095E-04 (  1,121,254)
     1 CALLS TO GCG PACKAGE FOR TRANSPORT TIME STEP   3 IN FLOW TIME STEP   9 STRESS PERIOD   3
     9 TOTAL ITERATIONS
  MAXIMUM CONCENTRATION CHANGES FOR EACH ITERATION:
  MAX. CHANGE LAYER,ROW,COL MAX. CHANGE LAYER,ROW,COL MAX. CHANGE LAYER,ROW,COL MAX. CHANGE LAYER,ROW,COL MAX. CHANGE LAYER,ROW,COL
 ------------------------------------------------------------------------------------------------------------------------------------
   0.5235E-01 (  1,193, 55)  0.3507E-01 (  1,190, 53)  0.1494E-01 (  1,190, 51)  0.5874E-02 (  1,190, 55)  0.2336E-02 (  1,192, 53)
   0.7306E-03 (  1,185, 54)  0.3473E-03 (  1,188, 54)  0.1650E-03 (  1,189, 54)  0.6998E-04 (  1,191, 59)



 >>>>>>>>>>>>>>>>>>>>>>>>>>>>>>>>>>>>>>>>>>>>>>>>>>>>>>>FOR COMPONENT NO. 01<<<<<<<<<<<<<<<<<<<<<<<<<<<<<<<<<<<<<<<<<<<<<<<<<<<<<<<


                                            -------------------------------------------
                                                      TRANSPORT STEP NO.    3
                                            -------------------------------------------

 TOTAL ELAPSED TIME SINCE BEGINNING OF SIMULATION =   9100.000       d
 .....................................................................

                     CUMMULATIVE MASS BUDGETS AT END OF TRANSPORT STEP    3, TIME STEP    9, STRESS PERIOD    3
                     ------------------------------------------------------------------------------------------

                                                             IN                           OUT
                                                      ----------------             ----------------
                               CONSTANT CONCENTRATION:    0.000000                    0.000000    
                                        CONSTANT HEAD:    0.000000                  -0.3553553E-10
                                             RECHARGE:    3519586.                    0.000000    
                                   EVAPOTRANSPIRATION:    0.000000                    1.297572    
                                MASS STORAGE (SOLUTE):    18368.68                   -3534660.    
                            ---------------------------------------------------------------------------
                                              [TOTAL]:    3537955.       mg          -3534659.       mg

                                                          NET (IN - OUT):    3295.750    
                                                   DISCREPANCY (PERCENT):   0.9319751E-01



 >>>>>>>>>>>>>>>>>>>>>>>>>>>>>>>>>>>>>>>>>>>>>>>>>>>>>>>FOR COMPONENT NO. 02<<<<<<<<<<<<<<<<<<<<<<<<<<<<<<<<<<<<<<<<<<<<<<<<<<<<<<<


                                            -------------------------------------------
                                                      TRANSPORT STEP NO.    3
                                            -------------------------------------------

 TOTAL ELAPSED TIME SINCE BEGINNING OF SIMULATION =   9100.000       d
 .....................................................................

                     CUMMULATIVE MASS BUDGETS AT END OF TRANSPORT STEP    3, TIME STEP    9, STRESS PERIOD    3
                     ------------------------------------------------------------------------------------------

                                                             IN                           OUT
                                                      ----------------             ----------------
                               CONSTANT CONCENTRATION:    0.000000                    0.000000    
                                        CONSTANT HEAD:    0.000000                  -0.3171193E-11
                                             RECHARGE:    229440.6                    0.000000    
                                   EVAPOTRANSPIRATION:    0.000000                   0.8264501E-01
                                MASS STORAGE (SOLUTE):    1180.979                   -230292.4    
                            ---------------------------------------------------------------------------
                                              [TOTAL]:    230621.6       mg          -230292.4       mg

                                                          NET (IN - OUT):    329.2344    
                                                   DISCREPANCY (PERCENT):   0.1428615    



 >>>>>>>>>>>>>>>>>>>>>>>>>>>>>>>>>>>>>>>>>>>>>>>>>>>>>>>FOR COMPONENT NO. 03<<<<<<<<<<<<<<<<<<<<<<<<<<<<<<<<<<<<<<<<<<<<<<<<<<<<<<<


                                            -------------------------------------------
                                                      TRANSPORT STEP NO.    3
                                            -------------------------------------------

 TOTAL ELAPSED TIME SINCE BEGINNING OF SIMULATION =   9100.000       d
 .....................................................................

                     CUMMULATIVE MASS BUDGETS AT END OF TRANSPORT STEP    3, TIME STEP    9, STRESS PERIOD    3
                     ------------------------------------------------------------------------------------------

                                                             IN                           OUT
                                                      ----------------             ----------------
                               CONSTANT CONCENTRATION:    0.000000                    0.000000    
                                        CONSTANT HEAD:    0.000000                  -0.2617243E-16
                                             RECHARGE:    9843.630                    0.000000    
                                   EVAPOTRANSPIRATION:    0.000000                   0.3136579E-01
                                MASS STORAGE (SOLUTE):    57.79827                   -9876.399    
                            ---------------------------------------------------------------------------
                                              [TOTAL]:    9901.428       mg          -9876.368       mg

                                                          NET (IN - OUT):    25.05957    
                                                   DISCREPANCY (PERCENT):   0.2534111    


                                          ================================================
                                                         TIME STEP NO.  010
                                          ================================================

 FROM TIME =   9100.0     TO    10000.    



     1 CALLS TO GCG PACKAGE FOR TRANSPORT TIME STEP   1 IN FLOW TIME STEP  10 STRESS PERIOD   3
    16 TOTAL ITERATIONS


     1 CALLS TO GCG PACKAGE FOR TRANSPORT TIME STEP   1 IN FLOW TIME STEP  10 STRESS PERIOD   3
    15 TOTAL ITERATIONS


     1 CALLS TO GCG PACKAGE FOR TRANSPORT TIME STEP   1 IN FLOW TIME STEP  10 STRESS PERIOD   3
    15 TOTAL ITERATIONS



 >>>>>>>>>>>>>>>>>>>>>>>>>>>>>>>>>>>>>>>>>>>>>>>>>>>>>>>FOR COMPONENT NO. 01<<<<<<<<<<<<<<<<<<<<<<<<<<<<<<<<<<<<<<<<<<<<<<<<<<<<<<<


                                            -------------------------------------------
                                                      TRANSPORT STEP NO.    1
                                            -------------------------------------------

 TOTAL ELAPSED TIME SINCE BEGINNING OF SIMULATION =   9483.467       d
 .....................................................................

                     CUMMULATIVE MASS BUDGETS AT END OF TRANSPORT STEP    1, TIME STEP   10, STRESS PERIOD    3
                     ------------------------------------------------------------------------------------------

                                                             IN                           OUT
                                                      ----------------             ----------------
                               CONSTANT CONCENTRATION:    0.000000                    0.000000    
                                        CONSTANT HEAD:    0.000000                  -0.6672843E-10
                                             RECHARGE:    3667898.                    0.000000    
                                   EVAPOTRANSPIRATION:    0.000000                    1.407791    
                                MASS STORAGE (SOLUTE):    18454.65                   -3682634.    
                            ---------------------------------------------------------------------------
                                              [TOTAL]:    3686353.       mg          -3682632.       mg

                                                          NET (IN - OUT):    3720.750    
                                                   DISCREPANCY (PERCENT):   0.1009840    



 >>>>>>>>>>>>>>>>>>>>>>>>>>>>>>>>>>>>>>>>>>>>>>>>>>>>>>>FOR COMPONENT NO. 02<<<<<<<<<<<<<<<<<<<<<<<<<<<<<<<<<<<<<<<<<<<<<<<<<<<<<<<


                                            -------------------------------------------
                                                      TRANSPORT STEP NO.    1
                                            -------------------------------------------

 TOTAL ELAPSED TIME SINCE BEGINNING OF SIMULATION =   9483.467       d
 .....................................................................

                     CUMMULATIVE MASS BUDGETS AT END OF TRANSPORT STEP    1, TIME STEP   10, STRESS PERIOD    3
                     ------------------------------------------------------------------------------------------

                                                             IN                           OUT
                                                      ----------------             ----------------
                               CONSTANT CONCENTRATION:    0.000000                    0.000000    
                                        CONSTANT HEAD:    0.000000                  -0.5947188E-11
                                             RECHARGE:    239109.0                    0.000000    
                                   EVAPOTRANSPIRATION:    0.000000                   0.9263699E-01
                                MASS STORAGE (SOLUTE):    1184.133                   -239942.6    
                            ---------------------------------------------------------------------------
                                              [TOTAL]:    240293.2       mg          -239942.5       mg

                                                          NET (IN - OUT):    350.7188    
                                                   DISCREPANCY (PERCENT):   0.1460611    



 >>>>>>>>>>>>>>>>>>>>>>>>>>>>>>>>>>>>>>>>>>>>>>>>>>>>>>>FOR COMPONENT NO. 03<<<<<<<<<<<<<<<<<<<<<<<<<<<<<<<<<<<<<<<<<<<<<<<<<<<<<<<


                                            -------------------------------------------
                                                      TRANSPORT STEP NO.    1
                                            -------------------------------------------

 TOTAL ELAPSED TIME SINCE BEGINNING OF SIMULATION =   9483.467       d
 .....................................................................

                     CUMMULATIVE MASS BUDGETS AT END OF TRANSPORT STEP    1, TIME STEP   10, STRESS PERIOD    3
                     ------------------------------------------------------------------------------------------

                                                             IN                           OUT
                                                      ----------------             ----------------
                               CONSTANT CONCENTRATION:    0.000000                    0.000000    
                                        CONSTANT HEAD:    0.000000                  -0.5460496E-16
                                             RECHARGE:    10258.43                    0.000000    
                                   EVAPOTRANSPIRATION:    0.000000                   0.3561646E-01
                                MASS STORAGE (SOLUTE):    58.29969                   -10289.27    
                            ---------------------------------------------------------------------------
                                              [TOTAL]:    10316.73       mg          -10289.23       mg

                                                          NET (IN - OUT):    27.50195    
                                                   DISCREPANCY (PERCENT):   0.2669320    
     1 CALLS TO GCG PACKAGE FOR TRANSPORT TIME STEP   2 IN FLOW TIME STEP  10 STRESS PERIOD   3
    16 TOTAL ITERATIONS
     1 CALLS TO GCG PACKAGE FOR TRANSPORT TIME STEP   2 IN FLOW TIME STEP  10 STRESS PERIOD   3
    15 TOTAL ITERATIONS
     1 CALLS TO GCG PACKAGE FOR TRANSPORT TIME STEP   2 IN FLOW TIME STEP  10 STRESS PERIOD   3
    15 TOTAL ITERATIONS



 >>>>>>>>>>>>>>>>>>>>>>>>>>>>>>>>>>>>>>>>>>>>>>>>>>>>>>>FOR COMPONENT NO. 01<<<<<<<<<<<<<<<<<<<<<<<<<<<<<<<<<<<<<<<<<<<<<<<<<<<<<<<


                                            -------------------------------------------
                                                      TRANSPORT STEP NO.    2
                                            -------------------------------------------

 TOTAL ELAPSED TIME SINCE BEGINNING OF SIMULATION =   9866.934       d
 .....................................................................

                     CUMMULATIVE MASS BUDGETS AT END OF TRANSPORT STEP    2, TIME STEP   10, STRESS PERIOD    3
                     ------------------------------------------------------------------------------------------

                                                             IN                           OUT
                                                      ----------------             ----------------
                               CONSTANT CONCENTRATION:    0.000000                    0.000000    
                                        CONSTANT HEAD:    0.000000                  -0.1228506E-09
                                             RECHARGE:    3816211.                    0.000000    
                                   EVAPOTRANSPIRATION:    0.000000                    1.507821    
                                MASS STORAGE (SOLUTE):    18459.74                   -3830543.    
                            ---------------------------------------------------------------------------
                                              [TOTAL]:    3834671.       mg          -3830542.       mg

                                                          NET (IN - OUT):    4129.000    
                                                   DISCREPANCY (PERCENT):   0.1077335    



 >>>>>>>>>>>>>>>>>>>>>>>>>>>>>>>>>>>>>>>>>>>>>>>>>>>>>>>FOR COMPONENT NO. 02<<<<<<<<<<<<<<<<<<<<<<<<<<<<<<<<<<<<<<<<<<<<<<<<<<<<<<<


                                            -------------------------------------------
                                                      TRANSPORT STEP NO.    2
                                            -------------------------------------------

 TOTAL ELAPSED TIME SINCE BEGINNING OF SIMULATION =   9866.934       d
 .....................................................................

                     CUMMULATIVE MASS BUDGETS AT END OF TRANSPORT STEP    2, TIME STEP   10, STRESS PERIOD    3
                     ------------------------------------------------------------------------------------------

                                                             IN                           OUT
                                                      ----------------             ----------------
                               CONSTANT CONCENTRATION:    0.000000                    0.000000    
                                        CONSTANT HEAD:    0.000000                  -0.1093791E-10
                                             RECHARGE:    248777.5                    0.000000    
                                   EVAPOTRANSPIRATION:    0.000000                   0.1024908    
                                MASS STORAGE (SOLUTE):    1184.601                   -249590.2    
                            ---------------------------------------------------------------------------
                                              [TOTAL]:    249962.1       mg          -249590.1       mg

                                                          NET (IN - OUT):    371.9531    
                                                   DISCREPANCY (PERCENT):   0.1489146    



 >>>>>>>>>>>>>>>>>>>>>>>>>>>>>>>>>>>>>>>>>>>>>>>>>>>>>>>FOR COMPONENT NO. 03<<<<<<<<<<<<<<<<<<<<<<<<<<<<<<<<<<<<<<<<<<<<<<<<<<<<<<<


                                            -------------------------------------------
                                                      TRANSPORT STEP NO.    2
                                            -------------------------------------------

 TOTAL ELAPSED TIME SINCE BEGINNING OF SIMULATION =   9866.934       d
 .....................................................................

                     CUMMULATIVE MASS BUDGETS AT END OF TRANSPORT STEP    2, TIME STEP   10, STRESS PERIOD    3
                     ------------------------------------------------------------------------------------------

                                                             IN                           OUT
                                                      ----------------             ----------------
                               CONSTANT CONCENTRATION:    0.000000                    0.000000    
                                        CONSTANT HEAD:    0.000000                  -0.1095380E-15
                                             RECHARGE:    10673.24                    0.000000    
                                   EVAPOTRANSPIRATION:    0.000000                   0.3984636E-01
                                MASS STORAGE (SOLUTE):    58.31137                   -10701.67    
                            ---------------------------------------------------------------------------
                                              [TOTAL]:    10731.55       mg          -10701.63       mg

                                                          NET (IN - OUT):    29.91211    
                                                   DISCREPANCY (PERCENT):   0.2791196    
     1 CALLS TO GCG PACKAGE FOR TRANSPORT TIME STEP   3 IN FLOW TIME STEP  10 STRESS PERIOD   3
     9 TOTAL ITERATIONS
  MAXIMUM CONCENTRATION CHANGES FOR EACH ITERATION:
  MAX. CHANGE LAYER,ROW,COL MAX. CHANGE LAYER,ROW,COL MAX. CHANGE LAYER,ROW,COL MAX. CHANGE LAYER,ROW,COL MAX. CHANGE LAYER,ROW,COL
 ------------------------------------------------------------------------------------------------------------------------------------
   0.5065E-01 (  1,209,124)  0.3378E-01 (  1,210,124)  0.1244E-01 (  1,210,121)  0.6329E-02 (  1,210,127)  0.2657E-02 (  1,209,127)
   0.9908E-03 (  1,207,126)  0.4452E-03 (  1,208,126)  0.1742E-03 (  1,209,126)  0.8678E-04 (  1,209,125)
     1 CALLS TO GCG PACKAGE FOR TRANSPORT TIME STEP   3 IN FLOW TIME STEP  10 STRESS PERIOD   3
     9 TOTAL ITERATIONS
  MAXIMUM CONCENTRATION CHANGES FOR EACH ITERATION:
  MAX. CHANGE LAYER,ROW,COL MAX. CHANGE LAYER,ROW,COL MAX. CHANGE LAYER,ROW,COL MAX. CHANGE LAYER,ROW,COL MAX. CHANGE LAYER,ROW,COL
 ------------------------------------------------------------------------------------------------------------------------------------
   0.7384E-01 (  1,131,254)  0.2542E-01 (  1,131,257)  0.9441E-02 (  1,130,258)  0.3712E-02 (  1,128,252)  0.1875E-02 (  1,131,254)
   0.7249E-03 (  1,126,255)  0.2705E-03 (  1,125,255)  0.1123E-03 (  1,131,256)  0.3999E-04 (  1,121,254)
     1 CALLS TO GCG PACKAGE FOR TRANSPORT TIME STEP   3 IN FLOW TIME STEP  10 STRESS PERIOD   3
     9 TOTAL ITERATIONS
  MAXIMUM CONCENTRATION CHANGES FOR EACH ITERATION:
  MAX. CHANGE LAYER,ROW,COL MAX. CHANGE LAYER,ROW,COL MAX. CHANGE LAYER,ROW,COL MAX. CHANGE LAYER,ROW,COL MAX. CHANGE LAYER,ROW,COL
 ------------------------------------------------------------------------------------------------------------------------------------
   0.5211E-01 (  1,193, 55)  0.3488E-01 (  1,190, 53)  0.1474E-01 (  1,190, 51)  0.5841E-02 (  1,190, 55)  0.2285E-02 (  1,192, 53)
   0.7314E-03 (  1,185, 54)  0.3396E-03 (  1,188, 54)  0.1600E-03 (  1,189, 54)  0.6688E-04 (  1,191, 59)



 >>>>>>>>>>>>>>>>>>>>>>>>>>>>>>>>>>>>>>>>>>>>>>>>>>>>>>>FOR COMPONENT NO. 01<<<<<<<<<<<<<<<<<<<<<<<<<<<<<<<<<<<<<<<<<<<<<<<<<<<<<<<


                                            -------------------------------------------
                                                      TRANSPORT STEP NO.    3
                                            -------------------------------------------

 TOTAL ELAPSED TIME SINCE BEGINNING OF SIMULATION =   10000.00       d
 .....................................................................

                     CUMMULATIVE MASS BUDGETS AT END OF TRANSPORT STEP    3, TIME STEP   10, STRESS PERIOD    3
                     ------------------------------------------------------------------------------------------

                                                             IN                           OUT
                                                      ----------------             ----------------
                               CONSTANT CONCENTRATION:    0.000000                    0.000000    
                                        CONSTANT HEAD:    0.000000                  -0.1458946E-09
                                             RECHARGE:    3867677.                    0.000000    
                                   EVAPOTRANSPIRATION:    0.000000                    1.545204    
                                MASS STORAGE (SOLUTE):    22151.65                   -3885512.    
                            ---------------------------------------------------------------------------
                                              [TOTAL]:    3889828.       mg          -3885510.       mg

                                                          NET (IN - OUT):    4318.500    
                                                   DISCREPANCY (PERCENT):   0.1110820    



 >>>>>>>>>>>>>>>>>>>>>>>>>>>>>>>>>>>>>>>>>>>>>>>>>>>>>>>FOR COMPONENT NO. 02<<<<<<<<<<<<<<<<<<<<<<<<<<<<<<<<<<<<<<<<<<<<<<<<<<<<<<<


                                            -------------------------------------------
                                                      TRANSPORT STEP NO.    3
                                            -------------------------------------------

 TOTAL ELAPSED TIME SINCE BEGINNING OF SIMULATION =   10000.00       d
 .....................................................................

                     CUMMULATIVE MASS BUDGETS AT END OF TRANSPORT STEP    3, TIME STEP   10, STRESS PERIOD    3
                     ------------------------------------------------------------------------------------------

                                                             IN                           OUT
                                                      ----------------             ----------------
                               CONSTANT CONCENTRATION:    0.000000                    0.000000    
                                        CONSTANT HEAD:    0.000000                  -0.1298716E-10
                                             RECHARGE:    252132.5                    0.000000    
                                   EVAPOTRANSPIRATION:    0.000000                   0.1061323    
                                MASS STORAGE (SOLUTE):    1423.194                   -253178.5    
                            ---------------------------------------------------------------------------
                                              [TOTAL]:    253555.7       mg          -253178.4       mg

                                                          NET (IN - OUT):    377.2812    
                                                   DISCREPANCY (PERCENT):   0.1489070    



 >>>>>>>>>>>>>>>>>>>>>>>>>>>>>>>>>>>>>>>>>>>>>>>>>>>>>>>FOR COMPONENT NO. 03<<<<<<<<<<<<<<<<<<<<<<<<<<<<<<<<<<<<<<<<<<<<<<<<<<<<<<<


                                            -------------------------------------------
                                                      TRANSPORT STEP NO.    3
                                            -------------------------------------------

 TOTAL ELAPSED TIME SINCE BEGINNING OF SIMULATION =   10000.00       d
 .....................................................................

                     CUMMULATIVE MASS BUDGETS AT END OF TRANSPORT STEP    3, TIME STEP   10, STRESS PERIOD    3
                     ------------------------------------------------------------------------------------------

                                                             IN                           OUT
                                                      ----------------             ----------------
                               CONSTANT CONCENTRATION:    0.000000                    0.000000    
                                        CONSTANT HEAD:    0.000000                  -0.1312330E-15
                                             RECHARGE:    10817.18                    0.000000    
                                   EVAPOTRANSPIRATION:    0.000000                   0.4141323E-01
                                MASS STORAGE (SOLUTE):    69.47514                   -10856.12    
                            ---------------------------------------------------------------------------
                                              [TOTAL]:    10886.65       mg          -10856.08       mg

                                                          NET (IN - OUT):    30.57227    
                                                   DISCREPANCY (PERCENT):   0.2812183    
  ----- 
 | M T |
 | 3 D | END OF MODEL OUTPUT
  ----- 
